MODEL 1
REMARK VINA RESULT:      -6.2      0.000      0.000
REMARK  4 active torsions:
REMARK  status: ('A' for Active; 'I' for Inactive)
REMARK    1  A    between atoms: N_2  and  C_16 
REMARK    2  A    between atoms: N_2  and  C_17 
REMARK    3  A    between atoms: C_5  and  C_16 
REMARK    4  A    between atoms: C_17  and  C_20 
ROOT
HETATM    1  N   UNL     1     135.035  74.164  81.925  1.00  0.00    -0.312 N 
HETATM    2  C   UNL     1     136.419  75.944  82.771  1.00  0.00     0.039 A 
HETATM    3  C   UNL     1     136.141  76.754  81.715  1.00  0.00     0.028 A 
HETATM    4  C   UNL     1     135.243  76.239  80.682  1.00  0.00    -0.008 A 
HETATM    5  C   UNL     1     134.872  76.963  79.545  1.00  0.00     0.014 A 
HETATM    6  C   UNL     1     134.024  76.386  78.635  1.00  0.00     0.002 A 
HETATM    7  C   UNL     1     133.524  75.101  78.818  1.00  0.00     0.009 A 
HETATM    8  C   UNL     1     133.879  74.373  79.933  1.00  0.00    -0.029 A 
HETATM    9  C   UNL     1     134.731  74.948  80.850  1.00  0.00     0.054 A 
HETATM   10  C   UNL     1     134.329  72.883  81.777  1.00  0.00     0.137 A 
HETATM   11  C   UNL     1     133.546  72.995  80.450  1.00  0.00     0.061 A 
HETATM   12  C   UNL     1     135.869  74.647  82.869  1.00  0.00     0.256 A 
HETATM   13  O   UNL     1     136.145  73.953  83.833  1.00  0.00    -0.267 OA
ENDROOT
BRANCH   2  14
HETATM   14  C   UNL     1     137.340  76.438  83.856  1.00  0.00     0.314 C 
BRANCH  14  15
HETATM   15  N   UNL     1     138.625  75.732  83.768  1.00  0.00     0.095 N 
HETATM   16  HN2 UNL     1     138.591  75.078  82.998  1.00  0.00     0.316 HD
BRANCH  15  17
HETATM   17  C   UNL     1     138.910  74.999  85.009  1.00  0.00     0.358 C 
BRANCH  17  18
HETATM   18  C   UNL     1     140.303  75.328  85.477  1.00  0.00     0.201 A 
HETATM   19  N   UNL     1     140.739  76.501  85.869  1.00  0.00    -0.208 NA
HETATM   20  C   UNL     1     142.033  76.319  86.189  1.00  0.00     0.152 A 
HETATM   21  N   UNL     1     142.311  75.066  85.986  1.00  0.00    -0.112 NA
HETATM   22  C   UNL     1     142.983  77.372  86.696  1.00  0.00     0.096 C 
HETATM   23  O   UNL     1     141.331  74.479  85.577  1.00  0.00    -0.194 OA
ENDBRANCH  17  18
ENDBRANCH  15  17
ENDBRANCH  14  15
ENDBRANCH   2  14
TORSDOF 4
ENDMDL
MODEL 2
REMARK VINA RESULT:      -6.1      1.333      1.576
REMARK  4 active torsions:
REMARK  status: ('A' for Active; 'I' for Inactive)
REMARK    1  A    between atoms: N_2  and  C_16 
REMARK    2  A    between atoms: N_2  and  C_17 
REMARK    3  A    between atoms: C_5  and  C_16 
REMARK    4  A    between atoms: C_17  and  C_20 
ROOT
HETATM    1  N   UNL     1     135.835  74.147  82.980  1.00  0.00    -0.312 N 
HETATM    2  C   UNL     1     137.059  76.146  83.535  1.00  0.00     0.039 A 
HETATM    3  C   UNL     1     136.603  76.810  82.440  1.00  0.00     0.028 A 
HETATM    4  C   UNL     1     135.695  76.098  81.541  1.00  0.00    -0.008 A 
HETATM    5  C   UNL     1     135.152  76.659  80.382  1.00  0.00     0.014 A 
HETATM    6  C   UNL     1     134.311  75.903  79.608  1.00  0.00     0.002 A 
HETATM    7  C   UNL     1     133.984  74.594  79.949  1.00  0.00     0.009 A 
HETATM    8  C   UNL     1     134.510  74.026  81.088  1.00  0.00    -0.029 A 
HETATM    9  C   UNL     1     135.356  74.781  81.870  1.00  0.00     0.054 A 
HETATM   10  C   UNL     1     135.279  72.786  83.011  1.00  0.00     0.137 A 
HETATM   11  C   UNL     1     134.386  72.677  81.755  1.00  0.00     0.061 A 
HETATM   12  C   UNL     1     136.677  74.812  83.798  1.00  0.00     0.256 A 
HETATM   13  O   UNL     1     137.109  74.252  84.792  1.00  0.00    -0.267 OA
ENDROOT
BRANCH   2  14
HETATM   14  C   UNL     1     137.996  76.846  84.485  1.00  0.00     0.314 C 
BRANCH  14  15
HETATM   15  N   UNL     1     139.267  76.111  84.549  1.00  0.00     0.095 N 
HETATM   16  HN2 UNL     1     139.078  75.120  84.506  1.00  0.00     0.316 HD
BRANCH  15  17
HETATM   17  C   UNL     1     139.985  76.411  85.795  1.00  0.00     0.358 C 
BRANCH  17  18
HETATM   18  C   UNL     1     140.937  75.286  86.108  1.00  0.00     0.201 A 
HETATM   19  N   UNL     1     142.166  75.403  86.552  1.00  0.00    -0.208 NA
HETATM   20  C   UNL     1     142.625  74.146  86.682  1.00  0.00     0.152 A 
HETATM   21  N   UNL     1     141.668  73.342  86.324  1.00  0.00    -0.112 NA
HETATM   22  C   UNL     1     143.996  73.742  87.161  1.00  0.00     0.096 C 
HETATM   23  O   UNL     1     140.690  73.977  85.990  1.00  0.00    -0.194 OA
ENDBRANCH  17  18
ENDBRANCH  15  17
ENDBRANCH  14  15
ENDBRANCH   2  14
TORSDOF 4
ENDMDL
MODEL 3
REMARK VINA RESULT:      -5.9      1.795      2.546
REMARK  4 active torsions:
REMARK  status: ('A' for Active; 'I' for Inactive)
REMARK    1  A    between atoms: N_2  and  C_16 
REMARK    2  A    between atoms: N_2  and  C_17 
REMARK    3  A    between atoms: C_5  and  C_16 
REMARK    4  A    between atoms: C_17  and  C_20 
ROOT
HETATM    1  N   UNL     1     136.795  73.796  83.553  1.00  0.00    -0.312 N 
HETATM    2  C   UNL     1     137.994  75.761  84.260  1.00  0.00     0.039 A 
HETATM    3  C   UNL     1     137.377  76.551  83.341  1.00  0.00     0.028 A 
HETATM    4  C   UNL     1     136.395  75.925  82.457  1.00  0.00    -0.008 A 
HETATM    5  C   UNL     1     135.688  76.616  81.469  1.00  0.00     0.014 A 
HETATM    6  C   UNL     1     134.789  75.933  80.692  1.00  0.00     0.002 A 
HETATM    7  C   UNL     1     134.562  74.571  80.865  1.00  0.00     0.009 A 
HETATM    8  C   UNL     1     135.250  73.874  81.834  1.00  0.00    -0.029 A 
HETATM    9  C   UNL     1     136.155  74.556  82.617  1.00  0.00     0.054 A 
HETATM   10  C   UNL     1     136.304  72.414  83.441  1.00  0.00     0.137 A 
HETATM   11  C   UNL     1     135.267  72.437  82.296  1.00  0.00     0.061 A 
HETATM   12  C   UNL     1     137.704  74.382  84.359  1.00  0.00     0.256 A 
HETATM   13  O   UNL     1     138.280  73.710  85.198  1.00  0.00    -0.267 OA
ENDROOT
BRANCH   2  14
HETATM   14  C   UNL     1     139.012  76.369  85.189  1.00  0.00     0.314 C 
BRANCH  14  15
HETATM   15  N   UNL     1     140.358  75.932  84.794  1.00  0.00     0.095 N 
HETATM   16  HN2 UNL     1     140.342  74.939  84.607  1.00  0.00     0.316 HD
BRANCH  15  17
HETATM   17  C   UNL     1     141.335  76.205  85.858  1.00  0.00     0.358 C 
BRANCH  17  18
HETATM   18  C   UNL     1     141.996  74.918  86.274  1.00  0.00     0.201 A 
HETATM   19  N   UNL     1     143.216  74.780  86.736  1.00  0.00    -0.208 NA
HETATM   20  C   UNL     1     143.370  73.464  86.967  1.00  0.00     0.152 A 
HETATM   21  N   UNL     1     142.254  72.879  86.648  1.00  0.00    -0.112 NA
HETATM   22  C   UNL     1     144.606  72.791  87.506  1.00  0.00     0.096 C 
HETATM   23  O   UNL     1     141.452  73.697  86.247  1.00  0.00    -0.194 OA
ENDBRANCH  17  18
ENDBRANCH  15  17
ENDBRANCH  14  15
ENDBRANCH   2  14
TORSDOF 4
ENDMDL
MODEL 4
REMARK VINA RESULT:      -5.9      3.784      5.327
REMARK  4 active torsions:
REMARK  status: ('A' for Active; 'I' for Inactive)
REMARK    1  A    between atoms: N_2  and  C_16 
REMARK    2  A    between atoms: N_2  and  C_17 
REMARK    3  A    between atoms: C_5  and  C_16 
REMARK    4  A    between atoms: C_17  and  C_20 
ROOT
HETATM    1  N   UNL     1     136.849  75.080  83.651  1.00  0.00    -0.312 N 
HETATM    2  C   UNL     1     136.080  72.817  83.947  1.00  0.00     0.039 A 
HETATM    3  C   UNL     1     135.297  72.865  82.836  1.00  0.00     0.028 A 
HETATM    4  C   UNL     1     135.282  74.110  82.069  1.00  0.00    -0.008 A 
HETATM    5  C   UNL     1     134.525  74.299  80.910  1.00  0.00     0.014 A 
HETATM    6  C   UNL     1     134.582  75.508  80.266  1.00  0.00     0.002 A 
HETATM    7  C   UNL     1     135.376  76.548  80.737  1.00  0.00     0.009 A 
HETATM    8  C   UNL     1     136.129  76.379  81.878  1.00  0.00    -0.029 A 
HETATM    9  C   UNL     1     136.075  75.167  82.529  1.00  0.00     0.054 A 
HETATM   10  C   UNL     1     137.540  76.364  83.836  1.00  0.00     0.137 A 
HETATM   11  C   UNL     1     137.077  77.255  82.662  1.00  0.00     0.061 A 
HETATM   12  C   UNL     1     136.851  73.929  84.354  1.00  0.00     0.256 A 
HETATM   13  O   UNL     1     137.539  73.842  85.357  1.00  0.00    -0.267 OA
ENDROOT
BRANCH   2  14
HETATM   14  C   UNL     1     136.123  71.552  84.764  1.00  0.00     0.314 C 
BRANCH  14  15
HETATM   15  N   UNL     1     137.505  71.058  84.830  1.00  0.00     0.095 N 
HETATM   16  HN2 UNL     1     138.082  71.607  84.209  1.00  0.00     0.316 HD
BRANCH  15  17
HETATM   17  C   UNL     1     137.578  69.645  84.432  1.00  0.00     0.358 C 
BRANCH  17  18
HETATM   18  C   UNL     1     138.507  69.504  83.255  1.00  0.00     0.201 A 
HETATM   19  N   UNL     1     138.296  69.941  82.036  1.00  0.00    -0.208 NA
HETATM   20  C   UNL     1     139.385  69.588  81.331  1.00  0.00     0.152 A 
HETATM   21  N   UNL     1     140.192  68.972  82.142  1.00  0.00    -0.112 NA
HETATM   22  C   UNL     1     139.629  69.863  79.869  1.00  0.00     0.096 C 
HETATM   23  O   UNL     1     139.706  68.913  83.252  1.00  0.00    -0.194 OA
ENDBRANCH  17  18
ENDBRANCH  15  17
ENDBRANCH  14  15
ENDBRANCH   2  14
TORSDOF 4
ENDMDL
MODEL 5
REMARK VINA RESULT:      -5.6      2.360      3.173
REMARK  4 active torsions:
REMARK  status: ('A' for Active; 'I' for Inactive)
REMARK    1  A    between atoms: N_2  and  C_16 
REMARK    2  A    between atoms: N_2  and  C_17 
REMARK    3  A    between atoms: C_5  and  C_16 
REMARK    4  A    between atoms: C_17  and  C_20 
ROOT
HETATM    1  N   UNL     1     134.435  73.366  81.559  1.00  0.00    -0.312 N 
HETATM    2  C   UNL     1     135.794  74.708  83.026  1.00  0.00     0.039 A 
HETATM    3  C   UNL     1     135.759  75.780  82.189  1.00  0.00     0.028 A 
HETATM    4  C   UNL     1     135.008  75.644  80.942  1.00  0.00    -0.008 A 
HETATM    5  C   UNL     1     134.889  76.662  79.993  1.00  0.00     0.014 A 
HETATM    6  C   UNL     1     134.162  76.430  78.854  1.00  0.00     0.002 A 
HETATM    7  C   UNL     1     133.539  75.208  78.622  1.00  0.00     0.009 A 
HETATM    8  C   UNL     1     133.647  74.193  79.548  1.00  0.00    -0.029 A 
HETATM    9  C   UNL     1     134.376  74.421  80.693  1.00  0.00     0.054 A 
HETATM   10  C   UNL     1     133.666  72.253  80.983  1.00  0.00     0.137 A 
HETATM   11  C   UNL     1     133.126  72.779  79.635  1.00  0.00     0.061 A 
HETATM   12  C   UNL     1     135.135  73.501  82.704  1.00  0.00     0.256 A 
HETATM   13  O   UNL     1     135.192  72.564  83.483  1.00  0.00    -0.267 OA
ENDROOT
BRANCH   2  14
HETATM   14  C   UNL     1     136.557  74.809  84.321  1.00  0.00     0.314 C 
BRANCH  14  15
HETATM   15  N   UNL     1     137.975  75.066  84.035  1.00  0.00     0.095 N 
HETATM   16  HN2 UNL     1     138.494  74.205  84.137  1.00  0.00     0.316 HD
BRANCH  15  17
HETATM   17  C   UNL     1     138.525  76.070  84.957  1.00  0.00     0.358 C 
BRANCH  17  18
HETATM   18  C   UNL     1     137.795  77.374  84.769  1.00  0.00     0.201 A 
HETATM   19  N   UNL     1     137.179  78.065  85.699  1.00  0.00    -0.208 NA
HETATM   20  C   UNL     1     136.676  79.145  85.075  1.00  0.00     0.152 A 
HETATM   21  N   UNL     1     137.012  79.062  83.822  1.00  0.00    -0.112 NA
HETATM   22  C   UNL     1     135.877  80.252  85.711  1.00  0.00     0.096 C 
HETATM   23  O   UNL     1     137.655  78.052  83.625  1.00  0.00    -0.194 OA
ENDBRANCH  17  18
ENDBRANCH  15  17
ENDBRANCH  14  15
ENDBRANCH   2  14
TORSDOF 4
ENDMDL
MODEL 6
REMARK VINA RESULT:      -5.5      1.579      2.781
REMARK  4 active torsions:
REMARK  status: ('A' for Active; 'I' for Inactive)
REMARK    1  A    between atoms: N_2  and  C_16 
REMARK    2  A    between atoms: N_2  and  C_17 
REMARK    3  A    between atoms: C_5  and  C_16 
REMARK    4  A    between atoms: C_17  and  C_20 
ROOT
HETATM    1  N   UNL     1     135.899  76.041  81.763  1.00  0.00    -0.312 N 
HETATM    2  C   UNL     1     137.004  75.363  83.792  1.00  0.00     0.039 A 
HETATM    3  C   UNL     1     136.455  74.120  83.756  1.00  0.00     0.028 A 
HETATM    4  C   UNL     1     135.558  73.804  82.644  1.00  0.00    -0.008 A 
HETATM    5  C   UNL     1     134.926  72.569  82.483  1.00  0.00     0.014 A 
HETATM    6  C   UNL     1     134.102  72.377  81.404  1.00  0.00     0.002 A 
HETATM    7  C   UNL     1     133.884  73.381  80.466  1.00  0.00     0.009 A 
HETATM    8  C   UNL     1     134.500  74.605  80.609  1.00  0.00    -0.029 A 
HETATM    9  C   UNL     1     135.328  74.803  81.692  1.00  0.00     0.054 A 
HETATM   10  C   UNL     1     135.439  76.828  80.609  1.00  0.00     0.137 A 
HETATM   11  C   UNL     1     134.500  75.891  79.818  1.00  0.00     0.061 A 
HETATM   12  C   UNL     1     136.719  76.323  82.795  1.00  0.00     0.256 A 
HETATM   13  O   UNL     1     137.234  77.426  82.866  1.00  0.00    -0.267 OA
ENDROOT
BRANCH   2  14
HETATM   14  C   UNL     1     137.933  75.726  84.921  1.00  0.00     0.314 C 
BRANCH  14  15
HETATM   15  N   UNL     1     139.321  75.702  84.441  1.00  0.00     0.095 N 
HETATM   16  HN2 UNL     1     139.582  74.749  84.231  1.00  0.00     0.316 HD
BRANCH  15  17
HETATM   17  C   UNL     1     140.239  76.239  85.456  1.00  0.00     0.358 C 
BRANCH  17  18
HETATM   18  C   UNL     1     141.141  75.138  85.949  1.00  0.00     0.201 A 
HETATM   19  N   UNL     1     142.357  75.277  86.419  1.00  0.00    -0.208 NA
HETATM   20  C   UNL     1     142.769  74.035  86.729  1.00  0.00     0.152 A 
HETATM   21  N   UNL     1     141.798  73.219  86.445  1.00  0.00    -0.112 NA
HETATM   22  C   UNL     1     144.109  73.658  87.308  1.00  0.00     0.096 C 
HETATM   23  O   UNL     1     140.853  73.833  85.995  1.00  0.00    -0.194 OA
ENDBRANCH  17  18
ENDBRANCH  15  17
ENDBRANCH  14  15
ENDBRANCH   2  14
TORSDOF 4
ENDMDL
MODEL 7
REMARK VINA RESULT:      -5.5      1.543      2.641
REMARK  4 active torsions:
REMARK  status: ('A' for Active; 'I' for Inactive)
REMARK    1  A    between atoms: N_2  and  C_16 
REMARK    2  A    between atoms: N_2  and  C_17 
REMARK    3  A    between atoms: C_5  and  C_16 
REMARK    4  A    between atoms: C_17  and  C_20 
ROOT
HETATM    1  N   UNL     1     134.991  76.146  80.248  1.00  0.00    -0.312 N 
HETATM    2  C   UNL     1     135.773  75.129  82.285  1.00  0.00     0.039 A 
HETATM    3  C   UNL     1     135.068  73.987  82.066  1.00  0.00     0.028 A 
HETATM    4  C   UNL     1     134.260  73.910  80.850  1.00  0.00    -0.008 A 
HETATM    5  C   UNL     1     133.487  72.800  80.500  1.00  0.00     0.014 A 
HETATM    6  C   UNL     1     132.764  72.831  79.336  1.00  0.00     0.002 A 
HETATM    7  C   UNL     1     132.784  73.939  78.495  1.00  0.00     0.009 A 
HETATM    8  C   UNL     1     133.541  75.042  78.824  1.00  0.00    -0.029 A 
HETATM    9  C   UNL     1     134.268  75.016  79.993  1.00  0.00     0.054 A 
HETATM   10  C   UNL     1     134.766  77.096  79.148  1.00  0.00     0.137 A 
HETATM   11  C   UNL     1     133.798  76.382  78.178  1.00  0.00     0.061 A 
HETATM   12  C   UNL     1     135.728  76.208  81.376  1.00  0.00     0.256 A 
HETATM   13  O   UNL     1     136.376  77.214  81.611  1.00  0.00    -0.267 OA
ENDROOT
BRANCH   2  14
HETATM   14  C   UNL     1     136.618  75.246  83.528  1.00  0.00     0.314 C 
BRANCH  14  15
HETATM   15  N   UNL     1     137.111  73.916  83.912  1.00  0.00     0.095 N 
HETATM   16  HN2 UNL     1     136.333  73.275  83.955  1.00  0.00     0.316 HD
BRANCH  15  17
HETATM   17  C   UNL     1     137.773  73.959  85.223  1.00  0.00     0.358 C 
BRANCH  17  18
HETATM   18  C   UNL     1     139.102  74.656  85.092  1.00  0.00     0.201 A 
HETATM   19  N   UNL     1     139.717  75.346  86.023  1.00  0.00    -0.208 NA
HETATM   20  C   UNL     1     140.858  75.780  85.457  1.00  0.00     0.152 A 
HETATM   21  N   UNL     1     140.882  75.333  84.237  1.00  0.00    -0.112 NA
HETATM   22  C   UNL     1     141.917  76.623  86.119  1.00  0.00     0.096 C 
HETATM   23  O   UNL     1     139.882  74.685  84.007  1.00  0.00    -0.194 OA
ENDBRANCH  17  18
ENDBRANCH  15  17
ENDBRANCH  14  15
ENDBRANCH   2  14
TORSDOF 4
ENDMDL
MODEL 8
REMARK VINA RESULT:      -5.5      3.738      5.942
REMARK  4 active torsions:
REMARK  status: ('A' for Active; 'I' for Inactive)
REMARK    1  A    between atoms: N_2  and  C_16 
REMARK    2  A    between atoms: N_2  and  C_17 
REMARK    3  A    between atoms: C_5  and  C_16 
REMARK    4  A    between atoms: C_17  and  C_20 
ROOT
HETATM    1  N   UNL     1     134.691  74.330  81.082  1.00  0.00    -0.312 N 
HETATM    2  C   UNL     1     135.050  72.498  82.602  1.00  0.00     0.039 A 
HETATM    3  C   UNL     1     135.941  73.203  83.349  1.00  0.00     0.028 A 
HETATM    4  C   UNL     1     136.236  74.575  82.939  1.00  0.00    -0.008 A 
HETATM    5  C   UNL     1     137.129  75.412  83.613  1.00  0.00     0.014 A 
HETATM    6  C   UNL     1     137.335  76.683  83.143  1.00  0.00     0.002 A 
HETATM    7  C   UNL     1     136.674  77.160  82.015  1.00  0.00     0.009 A 
HETATM    8  C   UNL     1     135.790  76.348  81.339  1.00  0.00    -0.029 A 
HETATM    9  C   UNL     1     135.580  75.070  81.806  1.00  0.00     0.054 A 
HETATM   10  C   UNL     1     134.200  75.156  79.969  1.00  0.00     0.137 A 
HETATM   11  C   UNL     1     134.920  76.515  80.116  1.00  0.00     0.061 A 
HETATM   12  C   UNL     1     134.431  73.063  81.466  1.00  0.00     0.256 A 
HETATM   13  O   UNL     1     133.638  72.395  80.824  1.00  0.00    -0.267 OA
ENDROOT
BRANCH   2  14
HETATM   14  C   UNL     1     134.720  71.080  82.993  1.00  0.00     0.314 C 
BRANCH  14  15
HETATM   15  N   UNL     1     135.424  70.150  82.100  1.00  0.00     0.095 N 
HETATM   16  HN2 UNL     1     134.767  69.466  81.752  1.00  0.00     0.316 HD
BRANCH  15  17
HETATM   17  C   UNL     1     136.508  69.457  82.810  1.00  0.00     0.358 C 
BRANCH  17  18
HETATM   18  C   UNL     1     137.744  69.446  81.950  1.00  0.00     0.201 A 
HETATM   19  N   UNL     1     137.940  68.723  80.873  1.00  0.00    -0.208 NA
HETATM   20  C   UNL     1     139.175  69.039  80.445  1.00  0.00     0.152 A 
HETATM   21  N   UNL     1     139.656  69.927  81.263  1.00  0.00    -0.112 NA
HETATM   22  C   UNL     1     139.871  68.472  79.234  1.00  0.00     0.096 C 
HETATM   23  O   UNL     1     138.850  70.174  82.135  1.00  0.00    -0.194 OA
ENDBRANCH  17  18
ENDBRANCH  15  17
ENDBRANCH  14  15
ENDBRANCH   2  14
TORSDOF 4
ENDMDL
MODEL 9
REMARK VINA RESULT:      -5.4      2.129      2.470
REMARK  4 active torsions:
REMARK  status: ('A' for Active; 'I' for Inactive)
REMARK    1  A    between atoms: N_2  and  C_16 
REMARK    2  A    between atoms: N_2  and  C_17 
REMARK    3  A    between atoms: C_5  and  C_16 
REMARK    4  A    between atoms: C_17  and  C_20 
ROOT
HETATM    1  N   UNL     1     133.821  77.600  83.129  1.00  0.00    -0.312 N 
HETATM    2  C   UNL     1     136.198  77.230  83.245  1.00  0.00     0.039 A 
HETATM    3  C   UNL     1     136.240  76.668  82.007  1.00  0.00     0.028 A 
HETATM    4  C   UNL     1     134.983  76.560  81.267  1.00  0.00    -0.008 A 
HETATM    5  C   UNL     1     134.881  76.005  79.989  1.00  0.00     0.014 A 
HETATM    6  C   UNL     1     133.652  75.950  79.383  1.00  0.00     0.002 A 
HETATM    7  C   UNL     1     132.508  76.434  80.009  1.00  0.00     0.009 A 
HETATM    8  C   UNL     1     132.591  76.984  81.270  1.00  0.00    -0.029 A 
HETATM    9  C   UNL     1     133.823  77.042  81.883  1.00  0.00     0.054 A 
HETATM   10  C   UNL     1     132.443  77.991  83.458  1.00  0.00     0.137 A 
HETATM   11  C   UNL     1     131.596  77.591  82.229  1.00  0.00     0.061 A 
HETATM   12  C   UNL     1     134.985  77.690  83.804  1.00  0.00     0.256 A 
HETATM   13  O   UNL     1     134.993  78.187  84.918  1.00  0.00    -0.267 OA
ENDROOT
BRANCH   2  14
HETATM   14  C   UNL     1     137.472  77.360  84.038  1.00  0.00     0.314 C 
BRANCH  14  15
HETATM   15  N   UNL     1     138.412  76.307  83.631  1.00  0.00     0.095 N 
HETATM   16  HN2 UNL     1     138.040  75.825  82.825  1.00  0.00     0.316 HD
BRANCH  15  17
HETATM   17  C   UNL     1     138.620  75.338  84.717  1.00  0.00     0.358 C 
BRANCH  17  18
HETATM   18  C   UNL     1     140.016  75.487  85.261  1.00  0.00     0.201 A 
HETATM   19  N   UNL     1     140.552  76.581  85.749  1.00  0.00    -0.208 NA
HETATM   20  C   UNL     1     141.803  76.243  86.107  1.00  0.00     0.152 A 
HETATM   21  N   UNL     1     141.960  74.982  85.832  1.00  0.00    -0.112 NA
HETATM   22  C   UNL     1     142.832  77.156  86.722  1.00  0.00     0.096 C 
HETATM   23  O   UNL     1     140.945  74.529  85.344  1.00  0.00    -0.194 OA
ENDBRANCH  17  18
ENDBRANCH  15  17
ENDBRANCH  14  15
ENDBRANCH   2  14
TORSDOF 4
ENDMDL
