MODEL 1
REMARK VINA RESULT:      -6.1      0.000      0.000
REMARK  4 active torsions:
REMARK  status: ('A' for Active; 'I' for Inactive)
REMARK    1  A    between atoms: N_4  and  C_8 
REMARK       I    between atoms: N_4  and  C_9 
REMARK    2  A    between atoms: C_6  and  C_9 
REMARK    3  A    between atoms: C_6  and  O_21 
REMARK    4  A    between atoms: C_10  and  O_21 
ROOT
HETATM    1  N   UNL     1     140.374  74.889  86.197  1.00  0.00    -0.158 N 
HETATM    2  N   UNL     1     141.025  74.858  85.085  1.00  0.00    -0.032 NA
HETATM    3  N   UNL     1     140.221  75.078  84.107  1.00  0.00     0.065 NA
HETATM    4  N   UNL     1     139.030  75.149  85.881  1.00  0.00     0.041 NA
HETATM    5  C   UNL     1     140.929  74.686  87.538  1.00  0.00     0.207 C 
HETATM    6  C   UNL     1     138.984  75.264  84.570  1.00  0.00     0.767 A 
ENDROOT
BRANCH   6   7
HETATM    7  N   UNL     1     137.844  75.527  83.803  1.00  0.00    -0.151 N 
HETATM    8  C   UNL     1     137.300  76.760  83.805  1.00  0.00     0.260 C 
HETATM    9  O   UNL     1     137.798  77.642  84.473  1.00  0.00    -0.270 OA
HETATM   10  H01 UNL     1     137.429  74.792  83.247  1.00  0.00     0.187 HD
BRANCH   8  11
HETATM   11  C   UNL     1     136.072  77.044  82.980  1.00  0.00     0.279 C 
BRANCH  11  12
HETATM   12  O   UNL     1     136.277  76.581  81.644  1.00  0.00    -0.341 OA
BRANCH  12  13
HETATM   13  C   UNL     1     135.394  75.669  81.164  1.00  0.00     0.080 A 
HETATM   14  C   UNL     1     134.717  75.906  79.951  1.00  0.00     0.007 A 
HETATM   15  C   UNL     1     134.932  77.080  79.212  1.00  0.00     0.015 A 
HETATM   16  C   UNL     1     133.798  74.940  79.468  1.00  0.00    -0.023 A 
HETATM   17  C   UNL     1     134.260  77.275  78.044  1.00  0.00     0.001 A 
HETATM   18  C   UNL     1     133.359  76.326  77.569  1.00  0.00     0.001 A 
HETATM   19  C   UNL     1     133.123  75.176  78.259  1.00  0.00     0.012 A 
HETATM   20  C   UNL     1     133.581  73.765  80.209  1.00  0.00     0.012 A 
HETATM   21  C   UNL     1     134.253  73.567  81.377  1.00  0.00     0.004 A 
HETATM   22  C   UNL     1     135.159  74.511  81.852  1.00  0.00     0.037 A 
ENDBRANCH  12  13
ENDBRANCH  11  12
ENDBRANCH   8  11
ENDBRANCH   6   7
TORSDOF 4
ENDMDL
MODEL 2
REMARK VINA RESULT:      -6.0      1.413      1.780
REMARK  4 active torsions:
REMARK  status: ('A' for Active; 'I' for Inactive)
REMARK    1  A    between atoms: N_4  and  C_8 
REMARK       I    between atoms: N_4  and  C_9 
REMARK    2  A    between atoms: C_6  and  C_9 
REMARK    3  A    between atoms: C_6  and  O_21 
REMARK    4  A    between atoms: C_10  and  O_21 
ROOT
HETATM    1  N   UNL     1     142.125  75.545  86.467  1.00  0.00    -0.158 N 
HETATM    2  N   UNL     1     141.760  74.322  86.287  1.00  0.00    -0.032 NA
HETATM    3  N   UNL     1     140.702  74.289  85.558  1.00  0.00     0.065 NA
HETATM    4  N   UNL     1     141.198  76.355  85.789  1.00  0.00     0.041 NA
HETATM    5  C   UNL     1     143.283  76.006  87.238  1.00  0.00     0.207 C 
HETATM    6  C   UNL     1     140.335  75.529  85.235  1.00  0.00     0.767 A 
ENDROOT
BRANCH   6   7
HETATM    7  N   UNL     1     139.231  75.889  84.455  1.00  0.00    -0.151 N 
HETATM    8  C   UNL     1     138.084  76.275  85.048  1.00  0.00     0.260 C 
HETATM    9  O   UNL     1     138.008  76.310  86.258  1.00  0.00    -0.270 OA
HETATM   10  H01 UNL     1     139.294  75.860  83.447  1.00  0.00     0.187 HD
BRANCH   8  11
HETATM   11  C   UNL     1     136.894  76.663  84.208  1.00  0.00     0.279 C 
BRANCH  11  12
HETATM   12  O   UNL     1     137.067  76.169  82.879  1.00  0.00    -0.341 OA
BRANCH  12  13
HETATM   13  C   UNL     1     136.202  75.211  82.459  1.00  0.00     0.080 A 
HETATM   14  C   UNL     1     135.404  75.425  81.318  1.00  0.00     0.007 A 
HETATM   15  C   UNL     1     135.479  76.623  80.590  1.00  0.00     0.015 A 
HETATM   16  C   UNL     1     134.507  74.411  80.896  1.00  0.00    -0.023 A 
HETATM   17  C   UNL     1     134.693  76.796  79.491  1.00  0.00     0.001 A 
HETATM   18  C   UNL     1     133.812  75.799  79.077  1.00  0.00     0.001 A 
HETATM   19  C   UNL     1     133.711  74.624  79.758  1.00  0.00     0.012 A 
HETATM   20  C   UNL     1     134.432  73.212  81.626  1.00  0.00     0.012 A 
HETATM   21  C   UNL     1     135.217  73.037  82.725  1.00  0.00     0.004 A 
HETATM   22  C   UNL     1     136.102  74.029  83.139  1.00  0.00     0.037 A 
ENDBRANCH  12  13
ENDBRANCH  11  12
ENDBRANCH   8  11
ENDBRANCH   6   7
TORSDOF 4
ENDMDL
MODEL 3
REMARK VINA RESULT:      -6.0      1.925      3.541
REMARK  4 active torsions:
REMARK  status: ('A' for Active; 'I' for Inactive)
REMARK    1  A    between atoms: N_4  and  C_8 
REMARK       I    between atoms: N_4  and  C_9 
REMARK    2  A    between atoms: C_6  and  C_9 
REMARK    3  A    between atoms: C_6  and  O_21 
REMARK    4  A    between atoms: C_10  and  O_21 
ROOT
HETATM    1  N   UNL     1     142.456  72.835  86.762  1.00  0.00    -0.158 N 
HETATM    2  N   UNL     1     143.070  73.925  86.448  1.00  0.00    -0.032 NA
HETATM    3  N   UNL     1     142.212  74.827  86.127  1.00  0.00     0.065 NA
HETATM    4  N   UNL     1     141.080  73.080  86.615  1.00  0.00     0.041 NA
HETATM    5  C   UNL     1     143.076  71.577  87.185  1.00  0.00     0.207 C 
HETATM    6  C   UNL     1     140.977  74.333  86.224  1.00  0.00     0.767 A 
ENDROOT
BRANCH   6   7
HETATM    7  N   UNL     1     139.788  75.019  85.953  1.00  0.00    -0.151 N 
HETATM    8  C   UNL     1     139.438  75.283  84.678  1.00  0.00     0.260 C 
HETATM    9  O   UNL     1     140.154  74.927  83.766  1.00  0.00    -0.270 OA
HETATM   10  H01 UNL     1     139.192  75.316  86.713  1.00  0.00     0.187 HD
BRANCH   8  11
HETATM   11  C   UNL     1     138.158  76.022  84.385  1.00  0.00     0.279 C 
BRANCH  11  12
HETATM   12  O   UNL     1     137.122  75.083  84.092  1.00  0.00    -0.341 OA
BRANCH  12  13
HETATM   13  C   UNL     1     136.403  75.292  82.959  1.00  0.00     0.080 A 
HETATM   14  C   UNL     1     135.624  74.254  82.411  1.00  0.00     0.007 A 
HETATM   15  C   UNL     1     135.569  72.987  83.014  1.00  0.00     0.015 A 
HETATM   16  C   UNL     1     134.880  74.493  81.228  1.00  0.00    -0.023 A 
HETATM   17  C   UNL     1     134.804  72.007  82.457  1.00  0.00     0.001 A 
HETATM   18  C   UNL     1     134.074  72.242  81.295  1.00  0.00     0.001 A 
HETATM   19  C   UNL     1     134.103  73.458  80.681  1.00  0.00     0.012 A 
HETATM   20  C   UNL     1     134.936  75.761  80.625  1.00  0.00     0.012 A 
HETATM   21  C   UNL     1     135.699  76.743  81.180  1.00  0.00     0.004 A 
HETATM   22  C   UNL     1     136.427  76.513  82.345  1.00  0.00     0.037 A 
ENDBRANCH  12  13
ENDBRANCH  11  12
ENDBRANCH   8  11
ENDBRANCH   6   7
TORSDOF 4
ENDMDL
MODEL 4
REMARK VINA RESULT:      -5.8      3.143      4.961
REMARK  4 active torsions:
REMARK  status: ('A' for Active; 'I' for Inactive)
REMARK    1  A    between atoms: N_4  and  C_8 
REMARK       I    between atoms: N_4  and  C_9 
REMARK    2  A    between atoms: C_6  and  C_9 
REMARK    3  A    between atoms: C_6  and  O_21 
REMARK    4  A    between atoms: C_10  and  O_21 
ROOT
HETATM    1  N   UNL     1     142.823  71.635  86.550  1.00  0.00    -0.158 N 
HETATM    2  N   UNL     1     143.816  72.433  86.351  1.00  0.00    -0.032 NA
HETATM    3  N   UNL     1     143.414  73.652  86.426  1.00  0.00     0.065 NA
HETATM    4  N   UNL     1     141.688  72.436  86.764  1.00  0.00     0.041 NA
HETATM    5  C   UNL     1     142.867  70.171  86.548  1.00  0.00     0.207 C 
HETATM    6  C   UNL     1     142.106  73.682  86.683  1.00  0.00     0.767 A 
ENDROOT
BRANCH   6   7
HETATM    7  N   UNL     1     141.318  74.829  86.832  1.00  0.00    -0.151 N 
HETATM    8  C   UNL     1     140.773  75.418  85.749  1.00  0.00     0.260 C 
HETATM    9  O   UNL     1     140.964  74.953  84.646  1.00  0.00    -0.270 OA
HETATM   10  H01 UNL     1     141.159  75.216  87.752  1.00  0.00     0.187 HD
BRANCH   8  11
HETATM   11  C   UNL     1     139.925  76.653  85.909  1.00  0.00     0.279 C 
BRANCH  11  12
HETATM   12  O   UNL     1     138.548  76.280  85.984  1.00  0.00    -0.341 OA
BRANCH  12  13
HETATM   13  C   UNL     1     137.765  76.594  84.920  1.00  0.00     0.080 A 
HETATM   14  C   UNL     1     137.176  75.574  84.146  1.00  0.00     0.007 A 
HETATM   15  C   UNL     1     137.379  74.219  84.449  1.00  0.00     0.015 A 
HETATM   16  C   UNL     1     136.361  75.924  83.040  1.00  0.00    -0.023 A 
HETATM   17  C   UNL     1     136.793  73.260  83.680  1.00  0.00     0.001 A 
HETATM   18  C   UNL     1     135.993  73.603  82.593  1.00  0.00     0.001 A 
HETATM   19  C   UNL     1     135.773  74.908  82.268  1.00  0.00     0.012 A 
HETATM   20  C   UNL     1     136.158  77.282  82.736  1.00  0.00     0.012 A 
HETATM   21  C   UNL     1     136.743  78.242  83.504  1.00  0.00     0.004 A 
HETATM   22  C   UNL     1     137.539  77.902  84.594  1.00  0.00     0.037 A 
ENDBRANCH  12  13
ENDBRANCH  11  12
ENDBRANCH   8  11
ENDBRANCH   6   7
TORSDOF 4
ENDMDL
MODEL 5
REMARK VINA RESULT:      -5.8      1.901      2.678
REMARK  4 active torsions:
REMARK  status: ('A' for Active; 'I' for Inactive)
REMARK    1  A    between atoms: N_4  and  C_8 
REMARK       I    between atoms: N_4  and  C_9 
REMARK    2  A    between atoms: C_6  and  C_9 
REMARK    3  A    between atoms: C_6  and  O_21 
REMARK    4  A    between atoms: C_10  and  O_21 
ROOT
HETATM    1  N   UNL     1     142.538  72.952  86.706  1.00  0.00    -0.158 N 
HETATM    2  N   UNL     1     143.055  74.110  86.474  1.00  0.00    -0.032 NA
HETATM    3  N   UNL     1     142.121  74.964  86.246  1.00  0.00     0.065 NA
HETATM    4  N   UNL     1     141.143  73.097  86.606  1.00  0.00     0.041 NA
HETATM    5  C   UNL     1     143.265  71.717  87.010  1.00  0.00     0.207 C 
HETATM    6  C   UNL     1     140.932  74.365  86.324  1.00  0.00     0.767 A 
ENDROOT
BRANCH   6   7
HETATM    7  N   UNL     1     139.686  74.973  86.134  1.00  0.00    -0.151 N 
HETATM    8  C   UNL     1     139.245  75.230  84.886  1.00  0.00     0.260 C 
HETATM    9  O   UNL     1     139.928  74.935  83.929  1.00  0.00    -0.270 OA
HETATM   10  H01 UNL     1     139.117  75.219  86.932  1.00  0.00     0.187 HD
BRANCH   8  11
HETATM   11  C   UNL     1     137.904  75.885  84.681  1.00  0.00     0.279 C 
BRANCH  11  12
HETATM   12  O   UNL     1     137.556  75.837  83.296  1.00  0.00    -0.341 OA
BRANCH  12  13
HETATM   13  C   UNL     1     136.632  74.916  82.922  1.00  0.00     0.080 A 
HETATM   14  C   UNL     1     135.768  75.176  81.840  1.00  0.00     0.007 A 
HETATM   15  C   UNL     1     135.836  76.381  81.124  1.00  0.00     0.015 A 
HETATM   16  C   UNL     1     134.810  74.200  81.466  1.00  0.00    -0.023 A 
HETATM   17  C   UNL     1     134.986  76.597  80.083  1.00  0.00     0.001 A 
HETATM   18  C   UNL     1     134.045  75.638  79.716  1.00  0.00     0.001 A 
HETATM   19  C   UNL     1     133.948  74.457  80.387  1.00  0.00     0.012 A 
HETATM   20  C   UNL     1     134.741  72.992  82.184  1.00  0.00     0.012 A 
HETATM   21  C   UNL     1     135.591  72.774  83.225  1.00  0.00     0.004 A 
HETATM   22  C   UNL     1     136.536  73.728  83.592  1.00  0.00     0.037 A 
ENDBRANCH  12  13
ENDBRANCH  11  12
ENDBRANCH   8  11
ENDBRANCH   6   7
TORSDOF 4
ENDMDL
MODEL 6
REMARK VINA RESULT:      -5.7      0.864      2.307
REMARK  4 active torsions:
REMARK  status: ('A' for Active; 'I' for Inactive)
REMARK    1  A    between atoms: N_4  and  C_8 
REMARK       I    between atoms: N_4  and  C_9 
REMARK    2  A    between atoms: C_6  and  C_9 
REMARK    3  A    between atoms: C_6  and  O_21 
REMARK    4  A    between atoms: C_10  and  O_21 
ROOT
HETATM    1  N   UNL     1     140.439  75.060  86.115  1.00  0.00    -0.158 N 
HETATM    2  N   UNL     1     141.033  74.953  84.976  1.00  0.00    -0.032 NA
HETATM    3  N   UNL     1     140.164  74.999  84.030  1.00  0.00     0.065 NA
HETATM    4  N   UNL     1     139.063  75.177  85.853  1.00  0.00     0.041 NA
HETATM    5  C   UNL     1     141.076  75.053  87.435  1.00  0.00     0.207 C 
HETATM    6  C   UNL     1     138.942  75.139  84.543  1.00  0.00     0.767 A 
ENDROOT
BRANCH   6   7
HETATM    7  N   UNL     1     137.746  75.225  83.822  1.00  0.00    -0.151 N 
HETATM    8  C   UNL     1     137.185  76.428  83.587  1.00  0.00     0.260 C 
HETATM    9  O   UNL     1     137.717  77.436  84.002  1.00  0.00    -0.270 OA
HETATM   10  H01 UNL     1     137.303  74.385  83.477  1.00  0.00     0.187 HD
BRANCH   8  11
HETATM   11  C   UNL     1     135.897  76.521  82.810  1.00  0.00     0.279 C 
BRANCH  11  12
HETATM   12  O   UNL     1     135.747  75.358  81.995  1.00  0.00    -0.341 OA
BRANCH  12  13
HETATM   13  C   UNL     1     135.032  75.496  80.849  1.00  0.00     0.080 A 
HETATM   14  C   UNL     1     134.234  74.435  80.378  1.00  0.00     0.007 A 
HETATM   15  C   UNL     1     134.155  73.218  81.071  1.00  0.00     0.015 A 
HETATM   16  C   UNL     1     133.496  74.600  79.178  1.00  0.00    -0.023 A 
HETATM   17  C   UNL     1     133.372  72.214  80.587  1.00  0.00     0.001 A 
HETATM   18  C   UNL     1     132.647  72.376  79.409  1.00  0.00     0.001 A 
HETATM   19  C   UNL     1     132.699  73.543  78.708  1.00  0.00     0.012 A 
HETATM   20  C   UNL     1     133.576  75.820  78.483  1.00  0.00     0.012 A 
HETATM   21  C   UNL     1     134.357  76.825  78.966  1.00  0.00     0.004 A 
HETATM   22  C   UNL     1     135.080  76.668  80.146  1.00  0.00     0.037 A 
ENDBRANCH  12  13
ENDBRANCH  11  12
ENDBRANCH   8  11
ENDBRANCH   6   7
TORSDOF 4
ENDMDL
MODEL 7
REMARK VINA RESULT:      -5.7      1.539      1.700
REMARK  4 active torsions:
REMARK  status: ('A' for Active; 'I' for Inactive)
REMARK    1  A    between atoms: N_4  and  C_8 
REMARK       I    between atoms: N_4  and  C_9 
REMARK    2  A    between atoms: C_6  and  C_9 
REMARK    3  A    between atoms: C_6  and  O_21 
REMARK    4  A    between atoms: C_10  and  O_21 
ROOT
HETATM    1  N   UNL     1     141.248  76.336  86.007  1.00  0.00    -0.158 N 
HETATM    2  N   UNL     1     141.579  75.356  85.237  1.00  0.00    -0.032 NA
HETATM    3  N   UNL     1     140.560  74.984  84.548  1.00  0.00     0.065 NA
HETATM    4  N   UNL     1     139.886  76.596  85.780  1.00  0.00     0.041 NA
HETATM    5  C   UNL     1     142.124  77.041  86.947  1.00  0.00     0.207 C 
HETATM    6  C   UNL     1     139.503  75.734  84.861  1.00  0.00     0.767 A 
ENDROOT
BRANCH   6   7
HETATM    7  N   UNL     1     138.218  75.622  84.318  1.00  0.00    -0.151 N 
HETATM    8  C   UNL     1     137.404  74.623  84.714  1.00  0.00     0.260 C 
HETATM    9  O   UNL     1     137.785  73.822  85.540  1.00  0.00    -0.270 OA
HETATM   10  H01 UNL     1     137.901  76.290  83.629  1.00  0.00     0.187 HD
BRANCH   8  11
HETATM   11  C   UNL     1     136.021  74.502  84.129  1.00  0.00     0.279 C 
BRANCH  11  12
HETATM   12  O   UNL     1     136.019  75.016  82.796  1.00  0.00    -0.341 OA
BRANCH  12  13
HETATM   13  C   UNL     1     135.166  74.438  81.912  1.00  0.00     0.080 A 
HETATM   14  C   UNL     1     134.768  75.131  80.752  1.00  0.00     0.007 A 
HETATM   15  C   UNL     1     135.236  76.425  80.479  1.00  0.00     0.015 A 
HETATM   16  C   UNL     1     133.877  74.508  79.842  1.00  0.00    -0.023 A 
HETATM   17  C   UNL     1     134.830  77.065  79.347  1.00  0.00     0.001 A 
HETATM   18  C   UNL     1     133.955  76.454  78.453  1.00  0.00     0.001 A 
HETATM   19  C   UNL     1     133.479  75.198  78.685  1.00  0.00     0.012 A 
HETATM   20  C   UNL     1     133.408  73.211  80.116  1.00  0.00     0.012 A 
HETATM   21  C   UNL     1     133.813  72.569  81.247  1.00  0.00     0.004 A 
HETATM   22  C   UNL     1     134.691  73.176  82.140  1.00  0.00     0.037 A 
ENDBRANCH  12  13
ENDBRANCH  11  12
ENDBRANCH   8  11
ENDBRANCH   6   7
TORSDOF 4
ENDMDL
MODEL 8
REMARK VINA RESULT:      -5.7      1.628      3.049
REMARK  4 active torsions:
REMARK  status: ('A' for Active; 'I' for Inactive)
REMARK    1  A    between atoms: N_4  and  C_8 
REMARK       I    between atoms: N_4  and  C_9 
REMARK    2  A    between atoms: C_6  and  C_9 
REMARK    3  A    between atoms: C_6  and  O_21 
REMARK    4  A    between atoms: C_10  and  O_21 
ROOT
HETATM    1  N   UNL     1     142.406  75.801  86.618  1.00  0.00    -0.158 N 
HETATM    2  N   UNL     1     142.198  74.542  86.437  1.00  0.00    -0.032 NA
HETATM    3  N   UNL     1     141.184  74.378  85.665  1.00  0.00     0.065 NA
HETATM    4  N   UNL     1     141.420  76.490  85.892  1.00  0.00     0.041 NA
HETATM    5  C   UNL     1     143.466  76.402  87.432  1.00  0.00     0.207 C 
HETATM    6  C   UNL     1     140.686  75.564  85.312  1.00  0.00     0.767 A 
ENDROOT
BRANCH   6   7
HETATM    7  N   UNL     1     139.582  75.784  84.482  1.00  0.00    -0.151 N 
HETATM    8  C   UNL     1     138.375  76.046  85.022  1.00  0.00     0.260 C 
HETATM    9  O   UNL     1     138.246  76.091  86.226  1.00  0.00    -0.270 OA
HETATM   10  H01 UNL     1     139.689  75.746  83.478  1.00  0.00     0.187 HD
BRANCH   8  11
HETATM   11  C   UNL     1     137.185  76.283  84.128  1.00  0.00     0.279 C 
BRANCH  11  12
HETATM   12  O   UNL     1     136.996  75.153  83.275  1.00  0.00    -0.341 OA
BRANCH  12  13
HETATM   13  C   UNL     1     136.122  75.296  82.245  1.00  0.00     0.080 A 
HETATM   14  C   UNL     1     135.293  74.223  81.864  1.00  0.00     0.007 A 
HETATM   15  C   UNL     1     135.344  72.989  82.530  1.00  0.00     0.015 A 
HETATM   16  C   UNL     1     134.387  74.394  80.786  1.00  0.00    -0.023 A 
HETATM   17  C   UNL     1     134.526  71.974  82.134  1.00  0.00     0.001 A 
HETATM   18  C   UNL     1     133.637  72.141  81.076  1.00  0.00     0.001 A 
HETATM   19  C   UNL     1     133.560  73.325  80.405  1.00  0.00     0.012 A 
HETATM   20  C   UNL     1     134.337  75.630  80.119  1.00  0.00     0.012 A 
HETATM   21  C   UNL     1     135.153  76.646  80.513  1.00  0.00     0.004 A 
HETATM   22  C   UNL     1     136.040  76.484  81.574  1.00  0.00     0.037 A 
ENDBRANCH  12  13
ENDBRANCH  11  12
ENDBRANCH   8  11
ENDBRANCH   6   7
TORSDOF 4
ENDMDL
MODEL 9
REMARK VINA RESULT:      -5.5      4.121      5.514
REMARK  4 active torsions:
REMARK  status: ('A' for Active; 'I' for Inactive)
REMARK    1  A    between atoms: N_4  and  C_8 
REMARK       I    between atoms: N_4  and  C_9 
REMARK    2  A    between atoms: C_6  and  C_9 
REMARK    3  A    between atoms: C_6  and  O_21 
REMARK    4  A    between atoms: C_10  and  O_21 
ROOT
HETATM    1  N   UNL     1     139.459  68.734  83.382  1.00  0.00    -0.158 N 
HETATM    2  N   UNL     1     139.879  69.093  82.217  1.00  0.00    -0.032 NA
HETATM    3  N   UNL     1     139.051  69.929  81.699  1.00  0.00     0.065 NA
HETATM    4  N   UNL     1     138.247  69.408  83.609  1.00  0.00     0.041 NA
HETATM    5  C   UNL     1     140.117  67.796  84.295  1.00  0.00     0.207 C 
HETATM    6  C   UNL     1     138.037  70.143  82.537  1.00  0.00     0.767 A 
ENDROOT
BRANCH   6   7
HETATM    7  N   UNL     1     136.945  70.989  82.316  1.00  0.00    -0.151 N 
HETATM    8  C   UNL     1     135.827  70.509  81.736  1.00  0.00     0.260 C 
HETATM    9  O   UNL     1     135.767  69.344  81.406  1.00  0.00    -0.270 OA
HETATM   10  H01 UNL     1     136.994  71.960  82.592  1.00  0.00     0.187 HD
BRANCH   8  11
HETATM   11  C   UNL     1     134.650  71.419  81.498  1.00  0.00     0.279 C 
BRANCH  11  12
HETATM   12  O   UNL     1     134.777  72.586  82.313  1.00  0.00    -0.341 OA
BRANCH  12  13
HETATM   13  C   UNL     1     134.838  73.782  81.673  1.00  0.00     0.080 A 
HETATM   14  C   UNL     1     135.692  74.797  82.146  1.00  0.00     0.007 A 
HETATM   15  C   UNL     1     136.497  74.604  83.280  1.00  0.00     0.015 A 
HETATM   16  C   UNL     1     135.741  76.039  81.463  1.00  0.00    -0.023 A 
HETATM   17  C   UNL     1     137.312  75.608  83.708  1.00  0.00     0.001 A 
HETATM   18  C   UNL     1     137.360  76.827  83.037  1.00  0.00     0.001 A 
HETATM   19  C   UNL     1     136.593  77.052  81.934  1.00  0.00     0.012 A 
HETATM   20  C   UNL     1     134.934  76.232  80.328  1.00  0.00     0.012 A 
HETATM   21  C   UNL     1     134.118  75.230  79.898  1.00  0.00     0.004 A 
HETATM   22  C   UNL     1     134.072  74.008  80.563  1.00  0.00     0.037 A 
ENDBRANCH  12  13
ENDBRANCH  11  12
ENDBRANCH   8  11
ENDBRANCH   6   7
TORSDOF 4
ENDMDL
