MODEL 1
REMARK VINA RESULT:      -5.8      0.000      0.000
REMARK  6 active torsions:
REMARK  status: ('A' for Active; 'I' for Inactive)
REMARK    1  A    between atoms: N_1  and  C_8 
REMARK    2  A    between atoms: N_5  and  C_6 
REMARK       I    between atoms: N_5  and  C_7 
REMARK    3  A    between atoms: C_7  and  C_11 
REMARK    4  A    between atoms: C_8  and  C_10 
REMARK    5  A    between atoms: C_11  and  O_21 
REMARK    6  A    between atoms: C_12  and  O_21 
ROOT
HETATM    1  N   UNL     1     141.881  75.314  86.217  1.00  0.00    -0.078 N 
HETATM    2  N   UNL     1     142.938  74.414  86.442  1.00  0.00    -0.030 NA
HETATM    3  N   UNL     1     142.413  73.241  86.543  1.00  0.00    -0.008 NA
HETATM    4  N   UNL     1     141.138  73.309  86.407  1.00  0.00     0.065 NA
HETATM    5  C   UNL     1     140.762  74.553  86.210  1.00  0.00     0.746 A 
ENDROOT
BRANCH   1   6
HETATM    6  C   UNL     1     141.971  76.764  86.034  1.00  0.00     0.172 C 
BRANCH   6   7
HETATM    7  C   UNL     1     142.861  77.361  87.125  1.00  0.00     0.018 C 
HETATM    8  C   UNL     1     143.743  78.458  86.522  1.00  0.00     0.007 C 
ENDBRANCH   6   7
ENDBRANCH   1   6
BRANCH   5   9
HETATM    9  N   UNL     1     139.461  75.000  86.022  1.00  0.00    -0.153 N 
HETATM   10  C   UNL     1     138.974  75.153  84.775  1.00  0.00     0.260 C 
HETATM   11  O   UNL     1     139.672  74.898  83.816  1.00  0.00    -0.270 OA
HETATM   12  H01 UNL     1     138.879  75.211  86.820  1.00  0.00     0.187 HD
BRANCH  10  13
HETATM   13  C   UNL     1     137.561  75.637  84.574  1.00  0.00     0.279 C 
BRANCH  13  14
HETATM   14  O   UNL     1     137.447  76.250  83.288  1.00  0.00    -0.342 OA
BRANCH  14  15
HETATM   15  C   UNL     1     136.496  75.756  82.451  1.00  0.00     0.070 A 
HETATM   16  C   UNL     1     135.983  74.485  82.655  1.00  0.00     0.043 A 
HETATM   17  C   UNL     1     135.015  73.987  81.804  1.00  0.00    -0.059 A 
HETATM   18  C   UNL     1     134.457  72.604  82.025  1.00  0.00     0.048 C 
HETATM   19  C   UNL     1     134.558  74.756  80.750  1.00  0.00     0.013 A 
HETATM   20  C   UNL     1     135.068  76.024  80.544  1.00  0.00    -0.059 A 
HETATM   21  C   UNL     1     134.567  76.860  79.394  1.00  0.00     0.048 C 
HETATM   22  C   UNL     1     136.031  76.530  81.396  1.00  0.00     0.043 A 
ENDBRANCH  14  15
ENDBRANCH  13  14
ENDBRANCH  10  13
ENDBRANCH   5   9
TORSDOF 6
ENDMDL
MODEL 2
REMARK VINA RESULT:      -5.7      0.153      1.872
REMARK  6 active torsions:
REMARK  status: ('A' for Active; 'I' for Inactive)
REMARK    1  A    between atoms: N_1  and  C_8 
REMARK    2  A    between atoms: N_5  and  C_6 
REMARK       I    between atoms: N_5  and  C_7 
REMARK    3  A    between atoms: C_7  and  C_11 
REMARK    4  A    between atoms: C_8  and  C_10 
REMARK    5  A    between atoms: C_11  and  O_21 
REMARK    6  A    between atoms: C_12  and  O_21 
ROOT
HETATM    1  N   UNL     1     141.946  75.299  86.251  1.00  0.00    -0.078 N 
HETATM    2  N   UNL     1     142.996  74.382  86.442  1.00  0.00    -0.030 NA
HETATM    3  N   UNL     1     142.462  73.210  86.491  1.00  0.00    -0.008 NA
HETATM    4  N   UNL     1     141.188  73.294  86.353  1.00  0.00     0.065 NA
HETATM    5  C   UNL     1     140.822  74.548  86.208  1.00  0.00     0.746 A 
ENDROOT
BRANCH   1   6
HETATM    6  C   UNL     1     142.048  76.755  86.131  1.00  0.00     0.172 C 
BRANCH   6   7
HETATM    7  C   UNL     1     143.279  77.245  86.895  1.00  0.00     0.018 C 
HETATM    8  C   UNL     1     143.783  78.548  86.269  1.00  0.00     0.007 C 
ENDBRANCH   6   7
ENDBRANCH   1   6
BRANCH   5   9
HETATM    9  N   UNL     1     139.525  75.012  86.034  1.00  0.00    -0.153 N 
HETATM   10  C   UNL     1     139.021  75.159  84.793  1.00  0.00     0.260 C 
HETATM   11  O   UNL     1     139.701  74.883  83.827  1.00  0.00    -0.270 OA
HETATM   12  H01 UNL     1     138.958  75.240  86.838  1.00  0.00     0.187 HD
BRANCH  10  13
HETATM   13  C   UNL     1     137.613  75.662  84.607  1.00  0.00     0.279 C 
BRANCH  13  14
HETATM   14  O   UNL     1     137.481  76.237  83.305  1.00  0.00    -0.342 OA
BRANCH  14  15
HETATM   15  C   UNL     1     136.518  75.719  82.497  1.00  0.00     0.070 A 
HETATM   16  C   UNL     1     136.033  76.459  81.430  1.00  0.00     0.043 A 
HETATM   17  C   UNL     1     135.056  75.929  80.610  1.00  0.00    -0.059 A 
HETATM   18  C   UNL     1     134.529  76.735  79.450  1.00  0.00     0.048 C 
HETATM   19  C   UNL     1     134.560  74.662  80.854  1.00  0.00     0.013 A 
HETATM   20  C   UNL     1     135.041  73.922  81.918  1.00  0.00    -0.059 A 
HETATM   21  C   UNL     1     134.499  72.540  82.180  1.00  0.00     0.048 C 
HETATM   22  C   UNL     1     136.023  74.443  82.736  1.00  0.00     0.043 A 
ENDBRANCH  14  15
ENDBRANCH  13  14
ENDBRANCH  10  13
ENDBRANCH   5   9
TORSDOF 6
ENDMDL
MODEL 3
REMARK VINA RESULT:      -5.5      4.310      5.844
REMARK  6 active torsions:
REMARK  status: ('A' for Active; 'I' for Inactive)
REMARK    1  A    between atoms: N_1  and  C_8 
REMARK    2  A    between atoms: N_5  and  C_6 
REMARK       I    between atoms: N_5  and  C_7 
REMARK    3  A    between atoms: C_7  and  C_11 
REMARK    4  A    between atoms: C_8  and  C_10 
REMARK    5  A    between atoms: C_11  and  O_21 
REMARK    6  A    between atoms: C_12  and  O_21 
ROOT
HETATM    1  N   UNL     1     139.157  68.811  82.852  1.00  0.00    -0.078 N 
HETATM    2  N   UNL     1     140.307  68.618  83.639  1.00  0.00    -0.030 NA
HETATM    3  N   UNL     1     140.077  69.178  84.777  1.00  0.00    -0.008 NA
HETATM    4  N   UNL     1     138.906  69.704  84.788  1.00  0.00     0.065 NA
HETATM    5  C   UNL     1     138.304  69.511  83.635  1.00  0.00     0.746 A 
ENDROOT
BRANCH   1   6
HETATM    6  C   UNL     1     138.933  68.356  81.479  1.00  0.00     0.172 C 
BRANCH   6   7
HETATM    7  C   UNL     1     140.070  68.854  80.585  1.00  0.00     0.018 C 
HETATM    8  C   UNL     1     139.813  70.312  80.197  1.00  0.00     0.007 C 
ENDBRANCH   6   7
ENDBRANCH   1   6
BRANCH   5   9
HETATM    9  N   UNL     1     137.029  69.940  83.290  1.00  0.00    -0.153 N 
HETATM   10  C   UNL     1     136.849  71.172  82.775  1.00  0.00     0.260 C 
HETATM   11  O   UNL     1     137.800  71.906  82.611  1.00  0.00    -0.270 OA
HETATM   12  H01 UNL     1     136.237  69.328  83.424  1.00  0.00     0.187 HD
BRANCH  10  13
HETATM   13  C   UNL     1     135.464  71.635  82.400  1.00  0.00     0.279 C 
BRANCH  13  14
HETATM   14  O   UNL     1     135.157  72.837  83.108  1.00  0.00    -0.342 OA
BRANCH  14  15
HETATM   15  C   UNL     1     135.280  74.005  82.422  1.00  0.00     0.070 A 
HETATM   16  C   UNL     1     134.584  74.194  81.239  1.00  0.00     0.043 A 
HETATM   17  C   UNL     1     134.711  75.382  80.546  1.00  0.00    -0.059 A 
HETATM   18  C   UNL     1     133.954  75.587  79.258  1.00  0.00     0.048 C 
HETATM   19  C   UNL     1     135.531  76.383  81.033  1.00  0.00     0.013 A 
HETATM   20  C   UNL     1     136.227  76.197  82.212  1.00  0.00    -0.059 A 
HETATM   21  C   UNL     1     137.120  77.291  82.740  1.00  0.00     0.048 C 
HETATM   22  C   UNL     1     136.099  75.014  82.913  1.00  0.00     0.043 A 
ENDBRANCH  14  15
ENDBRANCH  13  14
ENDBRANCH  10  13
ENDBRANCH   5   9
TORSDOF 6
ENDMDL
MODEL 4
REMARK VINA RESULT:      -5.5      2.117      3.739
REMARK  6 active torsions:
REMARK  status: ('A' for Active; 'I' for Inactive)
REMARK    1  A    between atoms: N_1  and  C_8 
REMARK    2  A    between atoms: N_5  and  C_6 
REMARK       I    between atoms: N_5  and  C_7 
REMARK    3  A    between atoms: C_7  and  C_11 
REMARK    4  A    between atoms: C_8  and  C_10 
REMARK    5  A    between atoms: C_11  and  O_21 
REMARK    6  A    between atoms: C_12  and  O_21 
ROOT
HETATM    1  N   UNL     1     139.449  74.250  85.856  1.00  0.00    -0.078 N 
HETATM    2  N   UNL     1     140.762  73.983  86.285  1.00  0.00    -0.030 NA
HETATM    3  N   UNL     1     141.550  74.639  85.504  1.00  0.00    -0.008 NA
HETATM    4  N   UNL     1     140.871  75.289  84.628  1.00  0.00     0.065 NA
HETATM    5  C   UNL     1     139.584  75.081  84.797  1.00  0.00     0.746 A 
ENDROOT
BRANCH   1   6
HETATM    6  C   UNL     1     138.204  73.735  86.429  1.00  0.00     0.172 C 
BRANCH   6   7
HETATM    7  C   UNL     1     137.767  72.488  85.660  1.00  0.00     0.018 C 
HETATM    8  C   UNL     1     136.440  72.766  84.949  1.00  0.00     0.007 C 
ENDBRANCH   6   7
ENDBRANCH   1   6
BRANCH   5   9
HETATM    9  N   UNL     1     138.556  75.622  84.035  1.00  0.00    -0.153 N 
HETATM   10  C   UNL     1     137.946  76.755  84.433  1.00  0.00     0.260 C 
HETATM   11  O   UNL     1     138.297  77.305  85.456  1.00  0.00    -0.270 OA
HETATM   12  H01 UNL     1     138.265  75.165  83.183  1.00  0.00     0.187 HD
BRANCH  10  13
HETATM   13  C   UNL     1     136.831  77.340  83.604  1.00  0.00     0.279 C 
BRANCH  13  14
HETATM   14  O   UNL     1     137.067  77.058  82.223  1.00  0.00    -0.342 OA
BRANCH  14  15
HETATM   15  C   UNL     1     136.114  76.342  81.569  1.00  0.00     0.070 A 
HETATM   16  C   UNL     1     135.564  76.827  80.394  1.00  0.00     0.043 A 
HETATM   17  C   UNL     1     134.597  76.096  79.731  1.00  0.00    -0.059 A 
HETATM   18  C   UNL     1     133.998  76.624  78.452  1.00  0.00     0.048 C 
HETATM   19  C   UNL     1     134.179  74.880  80.239  1.00  0.00     0.013 A 
HETATM   20  C   UNL     1     134.726  74.394  81.412  1.00  0.00    -0.059 A 
HETATM   21  C   UNL     1     134.267  73.068  81.963  1.00  0.00     0.048 C 
HETATM   22  C   UNL     1     135.697  75.117  82.075  1.00  0.00     0.043 A 
ENDBRANCH  14  15
ENDBRANCH  13  14
ENDBRANCH  10  13
ENDBRANCH   5   9
TORSDOF 6
ENDMDL
MODEL 5
REMARK VINA RESULT:      -5.5      2.400      3.539
REMARK  6 active torsions:
REMARK  status: ('A' for Active; 'I' for Inactive)
REMARK    1  A    between atoms: N_1  and  C_8 
REMARK    2  A    between atoms: N_5  and  C_6 
REMARK       I    between atoms: N_5  and  C_7 
REMARK    3  A    between atoms: C_7  and  C_11 
REMARK    4  A    between atoms: C_8  and  C_10 
REMARK    5  A    between atoms: C_11  and  O_21 
REMARK    6  A    between atoms: C_12  and  O_21 
ROOT
HETATM    1  N   UNL     1     139.181  75.508  85.802  1.00  0.00    -0.078 N 
HETATM    2  N   UNL     1     140.555  75.351  86.060  1.00  0.00    -0.030 NA
HETATM    3  N   UNL     1     141.107  75.017  84.945  1.00  0.00    -0.008 NA
HETATM    4  N   UNL     1     140.226  74.945  84.013  1.00  0.00     0.065 NA
HETATM    5  C   UNL     1     139.033  75.232  84.485  1.00  0.00     0.746 A 
ENDROOT
BRANCH   1   6
HETATM    6  C   UNL     1     138.134  75.884  86.754  1.00  0.00     0.172 C 
BRANCH   6   7
HETATM    7  C   UNL     1     138.273  77.366  87.106  1.00  0.00     0.018 C 
HETATM    8  C   UNL     1     137.302  78.187  86.254  1.00  0.00     0.007 C 
ENDBRANCH   6   7
ENDBRANCH   1   6
BRANCH   5   9
HETATM    9  N   UNL     1     137.846  75.254  83.765  1.00  0.00    -0.153 N 
HETATM   10  C   UNL     1     137.176  74.109  83.533  1.00  0.00     0.260 C 
HETATM   11  O   UNL     1     137.609  73.057  83.956  1.00  0.00    -0.270 OA
HETATM   12  H01 UNL     1     137.485  76.130  83.414  1.00  0.00     0.187 HD
BRANCH  10  13
HETATM   13  C   UNL     1     135.888  74.136  82.752  1.00  0.00     0.279 C 
BRANCH  13  14
HETATM   14  O   UNL     1     135.763  75.394  82.085  1.00  0.00    -0.342 OA
BRANCH  14  15
HETATM   15  C   UNL     1     135.020  75.417  80.946  1.00  0.00     0.070 A 
HETATM   16  C   UNL     1     135.020  76.543  80.138  1.00  0.00     0.043 A 
HETATM   17  C   UNL     1     134.265  76.562  78.981  1.00  0.00    -0.059 A 
HETATM   18  C   UNL     1     134.266  77.787  78.102  1.00  0.00     0.048 C 
HETATM   19  C   UNL     1     133.510  75.458  78.629  1.00  0.00     0.013 A 
HETATM   20  C   UNL     1     133.508  74.335  79.434  1.00  0.00    -0.059 A 
HETATM   21  C   UNL     1     132.683  73.133  79.047  1.00  0.00     0.048 C 
HETATM   22  C   UNL     1     134.265  74.307  80.588  1.00  0.00     0.043 A 
ENDBRANCH  14  15
ENDBRANCH  13  14
ENDBRANCH  10  13
ENDBRANCH   5   9
TORSDOF 6
ENDMDL
MODEL 6
REMARK VINA RESULT:      -5.5      4.289      5.808
REMARK  6 active torsions:
REMARK  status: ('A' for Active; 'I' for Inactive)
REMARK    1  A    between atoms: N_1  and  C_8 
REMARK    2  A    between atoms: N_5  and  C_6 
REMARK       I    between atoms: N_5  and  C_7 
REMARK    3  A    between atoms: C_7  and  C_11 
REMARK    4  A    between atoms: C_8  and  C_10 
REMARK    5  A    between atoms: C_11  and  O_21 
REMARK    6  A    between atoms: C_12  and  O_21 
ROOT
HETATM    1  N   UNL     1     139.095  68.833  82.946  1.00  0.00    -0.078 N 
HETATM    2  N   UNL     1     140.233  68.653  83.752  1.00  0.00    -0.030 NA
HETATM    3  N   UNL     1     139.994  69.247  84.871  1.00  0.00    -0.008 NA
HETATM    4  N   UNL     1     138.827  69.782  84.853  1.00  0.00     0.065 NA
HETATM    5  C   UNL     1     138.238  69.562  83.698  1.00  0.00     0.746 A 
ENDROOT
BRANCH   1   6
HETATM    6  C   UNL     1     138.884  68.342  81.583  1.00  0.00     0.172 C 
BRANCH   6   7
HETATM    7  C   UNL     1     140.026  68.821  80.685  1.00  0.00     0.018 C 
HETATM    8  C   UNL     1     139.786  70.279  80.289  1.00  0.00     0.007 C 
ENDBRANCH   6   7
ENDBRANCH   1   6
BRANCH   5   9
HETATM    9  N   UNL     1     136.971  69.991  83.325  1.00  0.00    -0.153 N 
HETATM   10  C   UNL     1     136.807  71.210  82.773  1.00  0.00     0.260 C 
HETATM   11  O   UNL     1     137.767  71.931  82.601  1.00  0.00    -0.270 OA
HETATM   12  H01 UNL     1     136.172  69.390  83.467  1.00  0.00     0.187 HD
BRANCH  10  13
HETATM   13  C   UNL     1     135.431  71.673  82.368  1.00  0.00     0.279 C 
BRANCH  13  14
HETATM   14  O   UNL     1     135.105  72.870  83.077  1.00  0.00    -0.342 OA
BRANCH  14  15
HETATM   15  C   UNL     1     135.252  74.043  82.405  1.00  0.00     0.070 A 
HETATM   16  C   UNL     1     136.066  75.041  82.917  1.00  0.00     0.043 A 
HETATM   17  C   UNL     1     136.214  76.231  82.231  1.00  0.00    -0.059 A 
HETATM   18  C   UNL     1     137.100  77.316  82.789  1.00  0.00     0.048 C 
HETATM   19  C   UNL     1     135.551  76.427  81.034  1.00  0.00     0.013 A 
HETATM   20  C   UNL     1     134.738  75.434  80.521  1.00  0.00    -0.059 A 
HETATM   21  C   UNL     1     134.016  75.651  79.215  1.00  0.00     0.048 C 
HETATM   22  C   UNL     1     134.591  74.240  81.199  1.00  0.00     0.043 A 
ENDBRANCH  14  15
ENDBRANCH  13  14
ENDBRANCH  10  13
ENDBRANCH   5   9
TORSDOF 6
ENDMDL
MODEL 7
REMARK VINA RESULT:      -5.5      2.426      3.080
REMARK  6 active torsions:
REMARK  status: ('A' for Active; 'I' for Inactive)
REMARK    1  A    between atoms: N_1  and  C_8 
REMARK    2  A    between atoms: N_5  and  C_6 
REMARK       I    between atoms: N_5  and  C_7 
REMARK    3  A    between atoms: C_7  and  C_11 
REMARK    4  A    between atoms: C_8  and  C_10 
REMARK    5  A    between atoms: C_11  and  O_21 
REMARK    6  A    between atoms: C_12  and  O_21 
ROOT
HETATM    1  N   UNL     1     139.132  75.636  85.786  1.00  0.00    -0.078 N 
HETATM    2  N   UNL     1     140.490  75.486  86.120  1.00  0.00    -0.030 NA
HETATM    3  N   UNL     1     141.090  75.069  85.058  1.00  0.00    -0.008 NA
HETATM    4  N   UNL     1     140.253  74.940  84.093  1.00  0.00     0.065 NA
HETATM    5  C   UNL     1     139.043  75.269  84.486  1.00  0.00     0.746 A 
ENDROOT
BRANCH   1   6
HETATM    6  C   UNL     1     138.046  76.088  86.659  1.00  0.00     0.172 C 
BRANCH   6   7
HETATM    7  C   UNL     1     138.134  77.604  86.839  1.00  0.00     0.018 C 
HETATM    8  C   UNL     1     137.333  78.297  85.735  1.00  0.00     0.007 C 
ENDBRANCH   6   7
ENDBRANCH   1   6
BRANCH   5   9
HETATM    9  N   UNL     1     137.891  75.252  83.710  1.00  0.00    -0.153 N 
HETATM   10  C   UNL     1     137.189  74.110  83.572  1.00  0.00     0.260 C 
HETATM   11  O   UNL     1     137.562  73.098  84.127  1.00  0.00    -0.270 OA
HETATM   12  H01 UNL     1     137.580  76.095  83.250  1.00  0.00     0.187 HD
BRANCH  10  13
HETATM   13  C   UNL     1     135.939  74.094  82.730  1.00  0.00     0.279 C 
BRANCH  13  14
HETATM   14  O   UNL     1     135.773  75.367  82.101  1.00  0.00    -0.342 OA
BRANCH  14  15
HETATM   15  C   UNL     1     135.036  75.398  80.959  1.00  0.00     0.070 A 
HETATM   16  C   UNL     1     134.257  74.308  80.603  1.00  0.00     0.043 A 
HETATM   17  C   UNL     1     133.508  74.345  79.443  1.00  0.00    -0.059 A 
HETATM   18  C   UNL     1     132.661  73.159  79.056  1.00  0.00     0.048 C 
HETATM   19  C   UNL     1     133.534  75.468  78.637  1.00  0.00     0.013 A 
HETATM   20  C   UNL     1     134.310  76.556  78.990  1.00  0.00    -0.059 A 
HETATM   21  C   UNL     1     134.337  77.780  78.109  1.00  0.00     0.048 C 
HETATM   22  C   UNL     1     135.056  76.528  80.152  1.00  0.00     0.043 A 
ENDBRANCH  14  15
ENDBRANCH  13  14
ENDBRANCH  10  13
ENDBRANCH   5   9
TORSDOF 6
ENDMDL
MODEL 8
REMARK VINA RESULT:      -5.5      2.367      3.510
REMARK  6 active torsions:
REMARK  status: ('A' for Active; 'I' for Inactive)
REMARK    1  A    between atoms: N_1  and  C_8 
REMARK    2  A    between atoms: N_5  and  C_6 
REMARK       I    between atoms: N_5  and  C_7 
REMARK    3  A    between atoms: C_7  and  C_11 
REMARK    4  A    between atoms: C_8  and  C_10 
REMARK    5  A    between atoms: C_11  and  O_21 
REMARK    6  A    between atoms: C_12  and  O_21 
ROOT
HETATM    1  N   UNL     1     139.017  74.341  85.651  1.00  0.00    -0.078 N 
HETATM    2  N   UNL     1     140.328  74.098  86.100  1.00  0.00    -0.030 NA
HETATM    3  N   UNL     1     141.120  74.700  85.281  1.00  0.00    -0.008 NA
HETATM    4  N   UNL     1     140.446  75.295  84.364  1.00  0.00     0.065 NA
HETATM    5  C   UNL     1     139.158  75.104  84.542  1.00  0.00     0.746 A 
ENDROOT
BRANCH   1   6
HETATM    6  C   UNL     1     137.769  73.868  86.253  1.00  0.00     0.172 C 
BRANCH   6   7
HETATM    7  C   UNL     1     137.371  72.534  85.618  1.00  0.00     0.018 C 
HETATM    8  C   UNL     1     136.160  72.744  84.706  1.00  0.00     0.007 C 
ENDBRANCH   6   7
ENDBRANCH   1   6
BRANCH   5   9
HETATM    9  N   UNL     1     138.133  75.598  83.745  1.00  0.00    -0.153 N 
HETATM   10  C   UNL     1     137.613  76.816  83.995  1.00  0.00     0.260 C 
HETATM   11  O   UNL     1     138.041  77.481  84.914  1.00  0.00    -0.270 OA
HETATM   12  H01 UNL     1     137.778  75.045  82.979  1.00  0.00     0.187 HD
BRANCH  10  13
HETATM   13  C   UNL     1     136.502  77.351  83.128  1.00  0.00     0.279 C 
BRANCH  13  14
HETATM   14  O   UNL     1     136.740  76.980  81.768  1.00  0.00    -0.342 OA
BRANCH  14  15
HETATM   15  C   UNL     1     135.772  76.252  81.150  1.00  0.00     0.070 A 
HETATM   16  C   UNL     1     135.378  75.031  81.676  1.00  0.00     0.043 A 
HETATM   17  C   UNL     1     134.394  74.294  81.047  1.00  0.00    -0.059 A 
HETATM   18  C   UNL     1     133.965  72.967  81.619  1.00  0.00     0.048 C 
HETATM   19  C   UNL     1     133.801  74.774  79.893  1.00  0.00     0.013 A 
HETATM   20  C   UNL     1     134.193  75.990  79.366  1.00  0.00    -0.059 A 
HETATM   21  C   UNL     1     133.545  76.510  78.108  1.00  0.00     0.048 C 
HETATM   22  C   UNL     1     135.172  76.734  79.995  1.00  0.00     0.043 A 
ENDBRANCH  14  15
ENDBRANCH  13  14
ENDBRANCH  10  13
ENDBRANCH   5   9
TORSDOF 6
ENDMDL
MODEL 9
REMARK VINA RESULT:      -5.3      2.298      3.780
REMARK  6 active torsions:
REMARK  status: ('A' for Active; 'I' for Inactive)
REMARK    1  A    between atoms: N_1  and  C_8 
REMARK    2  A    between atoms: N_5  and  C_6 
REMARK       I    between atoms: N_5  and  C_7 
REMARK    3  A    between atoms: C_7  and  C_11 
REMARK    4  A    between atoms: C_8  and  C_10 
REMARK    5  A    between atoms: C_11  and  O_21 
REMARK    6  A    between atoms: C_12  and  O_21 
ROOT
HETATM    1  N   UNL     1     139.124  73.963  85.837  1.00  0.00    -0.078 N 
HETATM    2  N   UNL     1     140.228  73.264  86.356  1.00  0.00    -0.030 NA
HETATM    3  N   UNL     1     141.279  73.941  86.040  1.00  0.00    -0.008 NA
HETATM    4  N   UNL     1     140.951  74.990  85.375  1.00  0.00     0.065 NA
HETATM    5  C   UNL     1     139.647  75.048  85.220  1.00  0.00     0.746 A 
ENDROOT
BRANCH   1   6
HETATM    6  C   UNL     1     137.710  73.593  85.937  1.00  0.00     0.172 C 
BRANCH   6   7
HETATM    7  C   UNL     1     137.224  73.064  84.587  1.00  0.00     0.018 C 
HETATM    8  C   UNL     1     135.999  73.863  84.137  1.00  0.00     0.007 C 
ENDBRANCH   6   7
ENDBRANCH   1   6
BRANCH   5   9
HETATM    9  N   UNL     1     138.940  76.041  84.556  1.00  0.00    -0.153 N 
HETATM   10  C   UNL     1     138.360  77.038  85.253  1.00  0.00     0.260 C 
HETATM   11  O   UNL     1     138.458  77.068  86.461  1.00  0.00    -0.270 OA
HETATM   12  H01 UNL     1     138.860  76.016  83.549  1.00  0.00     0.187 HD
BRANCH  10  13
HETATM   13  C   UNL     1     137.594  78.115  84.529  1.00  0.00     0.279 C 
BRANCH  13  14
HETATM   14  O   UNL     1     137.420  77.738  83.162  1.00  0.00    -0.342 OA
BRANCH  14  15
HETATM   15  C   UNL     1     136.171  77.361  82.780  1.00  0.00     0.070 A 
HETATM   16  C   UNL     1     135.070  77.741  83.531  1.00  0.00     0.043 A 
HETATM   17  C   UNL     1     133.802  77.359  83.140  1.00  0.00    -0.059 A 
HETATM   18  C   UNL     1     132.604  77.772  83.958  1.00  0.00     0.048 C 
HETATM   19  C   UNL     1     133.630  76.598  81.998  1.00  0.00     0.013 A 
HETATM   20  C   UNL     1     134.726  76.217  81.247  1.00  0.00    -0.059 A 
HETATM   21  C   UNL     1     134.535  75.387  80.003  1.00  0.00     0.048 C 
HETATM   22  C   UNL     1     135.995  76.602  81.630  1.00  0.00     0.043 A 
ENDBRANCH  14  15
ENDBRANCH  13  14
ENDBRANCH  10  13
ENDBRANCH   5   9
TORSDOF 6
ENDMDL
