MODEL 1
REMARK VINA RESULT:      -6.6      0.000      0.000
REMARK  4 active torsions:
REMARK  status: ('A' for Active; 'I' for Inactive)
REMARK    1  A    between atoms: N_4  and  C_8 
REMARK       I    between atoms: N_4  and  C_9 
REMARK    2  A    between atoms: C_6  and  C_9 
REMARK    3  A    between atoms: C_6  and  O_21 
REMARK    4  A    between atoms: C_10  and  O_21 
ROOT
HETATM    1  N   UNL     1     142.956  72.532  86.652  1.00  0.00    -0.158 N 
HETATM    2  N   UNL     1     143.565  73.649  86.441  1.00  0.00    -0.032 NA
HETATM    3  N   UNL     1     142.701  74.588  86.283  1.00  0.00     0.065 NA
HETATM    4  N   UNL     1     141.578  72.801  86.616  1.00  0.00     0.041 NA
HETATM    5  C   UNL     1     143.583  71.229  86.879  1.00  0.00     0.207 C 
HETATM    6  C   UNL     1     141.468  74.093  86.389  1.00  0.00     0.767 A 
ENDROOT
BRANCH   6   7
HETATM    7  N   UNL     1     140.274  74.815  86.275  1.00  0.00    -0.151 N 
HETATM    8  C   UNL     1     139.855  75.237  85.066  1.00  0.00     0.260 C 
HETATM    9  O   UNL     1     140.512  74.993  84.077  1.00  0.00    -0.270 OA
HETATM   10  H01 UNL     1     139.727  75.019  87.099  1.00  0.00     0.187 HD
BRANCH   8  11
HETATM   11  C   UNL     1     138.569  76.013  84.943  1.00  0.00     0.279 C 
BRANCH  11  12
HETATM   12  O   UNL     1     137.519  75.134  84.535  1.00  0.00    -0.342 OA
BRANCH  12  13
HETATM   13  C   UNL     1     136.853  75.455  83.395  1.00  0.00     0.070 A 
HETATM   14  C   UNL     1     137.080  76.694  82.789  1.00  0.00     0.037 A 
HETATM   15  C   UNL     1     136.429  77.044  81.647  1.00  0.00     0.015 A 
HETATM   16  C   UNL     1     135.515  76.150  81.063  1.00  0.00    -0.026 A 
HETATM   17  C   UNL     1     134.826  76.479  79.884  1.00  0.00     0.012 A 
HETATM   18  C   UNL     1     135.284  74.892  81.676  1.00  0.00    -0.023 A 
HETATM   19  C   UNL     1     133.947  75.589  79.347  1.00  0.00     0.001 A 
HETATM   20  C   UNL     1     133.718  74.353  79.949  1.00  0.00     0.001 A 
HETATM   21  C   UNL     1     134.368  73.999  81.092  1.00  0.00     0.012 A 
HETATM   22  C   UNL     1     135.975  74.560  82.852  1.00  0.00     0.049 A 
ENDBRANCH  12  13
ENDBRANCH  11  12
ENDBRANCH   8  11
ENDBRANCH   6   7
TORSDOF 4
ENDMDL
MODEL 2
REMARK VINA RESULT:      -6.3      1.633      2.553
REMARK  4 active torsions:
REMARK  status: ('A' for Active; 'I' for Inactive)
REMARK    1  A    between atoms: N_4  and  C_8 
REMARK       I    between atoms: N_4  and  C_9 
REMARK    2  A    between atoms: C_6  and  C_9 
REMARK    3  A    between atoms: C_6  and  O_21 
REMARK    4  A    between atoms: C_10  and  O_21 
ROOT
HETATM    1  N   UNL     1     142.042  74.956  86.440  1.00  0.00    -0.158 N 
HETATM    2  N   UNL     1     141.314  73.900  86.300  1.00  0.00    -0.032 NA
HETATM    3  N   UNL     1     140.272  74.184  85.603  1.00  0.00     0.065 NA
HETATM    4  N   UNL     1     141.386  76.000  85.768  1.00  0.00     0.041 NA
HETATM    5  C   UNL     1     143.310  75.048  87.167  1.00  0.00     0.207 C 
HETATM    6  C   UNL     1     140.293  75.472  85.259  1.00  0.00     0.767 A 
ENDROOT
BRANCH   6   7
HETATM    7  N   UNL     1     139.327  76.141  84.500  1.00  0.00    -0.151 N 
HETATM    8  C   UNL     1     138.188  76.567  85.081  1.00  0.00     0.260 C 
HETATM    9  O   UNL     1     138.001  76.369  86.263  1.00  0.00    -0.270 OA
HETATM   10  H01 UNL     1     139.482  76.304  83.515  1.00  0.00     0.187 HD
BRANCH   8  11
HETATM   11  C   UNL     1     137.147  77.287  84.264  1.00  0.00     0.279 C 
BRANCH  11  12
HETATM   12  O   UNL     1     137.412  77.090  82.874  1.00  0.00    -0.342 OA
BRANCH  12  13
HETATM   13  C   UNL     1     136.496  76.378  82.166  1.00  0.00     0.070 A 
HETATM   14  C   UNL     1     136.082  75.128  82.635  1.00  0.00     0.037 A 
HETATM   15  C   UNL     1     135.166  74.392  81.950  1.00  0.00     0.015 A 
HETATM   16  C   UNL     1     134.626  74.891  80.752  1.00  0.00    -0.026 A 
HETATM   17  C   UNL     1     133.678  74.157  80.018  1.00  0.00     0.012 A 
HETATM   18  C   UNL     1     135.045  76.160  80.275  1.00  0.00    -0.023 A 
HETATM   19  C   UNL     1     133.177  74.672  78.862  1.00  0.00     0.001 A 
HETATM   20  C   UNL     1     133.588  75.918  78.392  1.00  0.00     0.001 A 
HETATM   21  C   UNL     1     134.503  76.657  79.076  1.00  0.00     0.012 A 
HETATM   22  C   UNL     1     135.988  76.896  81.009  1.00  0.00     0.049 A 
ENDBRANCH  12  13
ENDBRANCH  11  12
ENDBRANCH   8  11
ENDBRANCH   6   7
TORSDOF 4
ENDMDL
MODEL 3
REMARK VINA RESULT:      -6.2      0.824      1.109
REMARK  4 active torsions:
REMARK  status: ('A' for Active; 'I' for Inactive)
REMARK    1  A    between atoms: N_4  and  C_8 
REMARK       I    between atoms: N_4  and  C_9 
REMARK    2  A    between atoms: C_6  and  C_9 
REMARK    3  A    between atoms: C_6  and  O_21 
REMARK    4  A    between atoms: C_10  and  O_21 
ROOT
HETATM    1  N   UNL     1     142.956  73.722  87.027  1.00  0.00    -0.158 N 
HETATM    2  N   UNL     1     142.322  72.635  86.746  1.00  0.00    -0.032 NA
HETATM    3  N   UNL     1     141.111  72.913  86.418  1.00  0.00     0.065 NA
HETATM    4  N   UNL     1     142.048  74.781  86.863  1.00  0.00     0.041 NA
HETATM    5  C   UNL     1     144.355  73.831  87.445  1.00  0.00     0.207 C 
HETATM    6  C   UNL     1     140.916  74.231  86.478  1.00  0.00     0.767 A 
ENDROOT
BRANCH   6   7
HETATM    7  N   UNL     1     139.724  74.905  86.191  1.00  0.00    -0.151 N 
HETATM    8  C   UNL     1     139.432  75.246  84.921  1.00  0.00     0.260 C 
HETATM    9  O   UNL     1     140.204  74.972  84.026  1.00  0.00    -0.270 OA
HETATM   10  H01 UNL     1     139.082  75.135  86.936  1.00  0.00     0.187 HD
BRANCH   8  11
HETATM   11  C   UNL     1     138.149  75.972  84.610  1.00  0.00     0.279 C 
BRANCH  11  12
HETATM   12  O   UNL     1     137.178  75.039  84.132  1.00  0.00    -0.342 OA
BRANCH  12  13
HETATM   13  C   UNL     1     136.526  75.361  82.983  1.00  0.00     0.070 A 
HETATM   14  C   UNL     1     136.792  76.582  82.358  1.00  0.00     0.037 A 
HETATM   15  C   UNL     1     136.156  76.933  81.208  1.00  0.00     0.015 A 
HETATM   16  C   UNL     1     135.218  76.057  80.635  1.00  0.00    -0.026 A 
HETATM   17  C   UNL     1     134.543  76.387  79.447  1.00  0.00     0.012 A 
HETATM   18  C   UNL     1     134.947  74.816  81.267  1.00  0.00    -0.023 A 
HETATM   19  C   UNL     1     133.641  75.514  78.922  1.00  0.00     0.001 A 
HETATM   20  C   UNL     1     133.373  74.295  79.542  1.00  0.00     0.001 A 
HETATM   21  C   UNL     1     134.008  73.941  80.693  1.00  0.00     0.012 A 
HETATM   22  C   UNL     1     135.624  74.483  82.451  1.00  0.00     0.049 A 
ENDBRANCH  12  13
ENDBRANCH  11  12
ENDBRANCH   8  11
ENDBRANCH   6   7
TORSDOF 4
ENDMDL
MODEL 4
REMARK VINA RESULT:      -6.2      0.810      1.710
REMARK  4 active torsions:
REMARK  status: ('A' for Active; 'I' for Inactive)
REMARK    1  A    between atoms: N_4  and  C_8 
REMARK       I    between atoms: N_4  and  C_9 
REMARK    2  A    between atoms: C_6  and  C_9 
REMARK    3  A    between atoms: C_6  and  O_21 
REMARK    4  A    between atoms: C_10  and  O_21 
ROOT
HETATM    1  N   UNL     1     142.321  73.069  86.706  1.00  0.00    -0.158 N 
HETATM    2  N   UNL     1     142.992  74.123  86.386  1.00  0.00    -0.032 NA
HETATM    3  N   UNL     1     142.184  75.055  86.023  1.00  0.00     0.065 NA
HETATM    4  N   UNL     1     140.963  73.374  86.520  1.00  0.00     0.041 NA
HETATM    5  C   UNL     1     142.872  71.795  87.171  1.00  0.00     0.207 C 
HETATM    6  C   UNL     1     140.926  74.621  86.100  1.00  0.00     0.767 A 
ENDROOT
BRANCH   6   7
HETATM    7  N   UNL     1     139.777  75.355  85.785  1.00  0.00    -0.151 N 
HETATM    8  C   UNL     1     139.311  75.369  84.521  1.00  0.00     0.260 C 
HETATM    9  O   UNL     1     139.889  74.747  83.655  1.00  0.00    -0.270 OA
HETATM   10  H01 UNL     1     139.297  75.874  86.507  1.00  0.00     0.187 HD
BRANCH   8  11
HETATM   11  C   UNL     1     138.074  76.160  84.182  1.00  0.00     0.279 C 
BRANCH  11  12
HETATM   12  O   UNL     1     136.920  75.335  84.353  1.00  0.00    -0.342 OA
BRANCH  12  13
HETATM   13  C   UNL     1     136.173  75.081  83.246  1.00  0.00     0.070 A 
HETATM   14  C   UNL     1     135.600  73.818  83.075  1.00  0.00     0.037 A 
HETATM   15  C   UNL     1     134.847  73.534  81.978  1.00  0.00     0.015 A 
HETATM   16  C   UNL     1     134.640  74.522  81.000  1.00  0.00    -0.026 A 
HETATM   17  C   UNL     1     133.868  74.263  79.854  1.00  0.00     0.012 A 
HETATM   18  C   UNL     1     135.220  75.805  81.173  1.00  0.00    -0.023 A 
HETATM   19  C   UNL     1     133.688  75.244  78.928  1.00  0.00     0.001 A 
HETATM   20  C   UNL     1     134.258  76.505  79.096  1.00  0.00     0.001 A 
HETATM   21  C   UNL     1     135.011  76.793  80.193  1.00  0.00     0.012 A 
HETATM   22  C   UNL     1     135.987  76.067  82.319  1.00  0.00     0.049 A 
ENDBRANCH  12  13
ENDBRANCH  11  12
ENDBRANCH   8  11
ENDBRANCH   6   7
TORSDOF 4
ENDMDL
MODEL 5
REMARK VINA RESULT:      -6.1      0.997      1.498
REMARK  4 active torsions:
REMARK  status: ('A' for Active; 'I' for Inactive)
REMARK    1  A    between atoms: N_4  and  C_8 
REMARK       I    between atoms: N_4  and  C_9 
REMARK    2  A    between atoms: C_6  and  C_9 
REMARK    3  A    between atoms: C_6  and  O_21 
REMARK    4  A    between atoms: C_10  and  O_21 
ROOT
HETATM    1  N   UNL     1     142.477  71.812  86.740  1.00  0.00    -0.158 N 
HETATM    2  N   UNL     1     141.324  71.235  86.720  1.00  0.00    -0.032 NA
HETATM    3  N   UNL     1     140.396  72.124  86.727  1.00  0.00     0.065 NA
HETATM    4  N   UNL     1     142.244  73.196  86.767  1.00  0.00     0.041 NA
HETATM    5  C   UNL     1     143.782  71.148  86.740  1.00  0.00     0.207 C 
HETATM    6  C   UNL     1     140.935  73.343  86.753  1.00  0.00     0.767 A 
ENDROOT
BRANCH   6   7
HETATM    7  N   UNL     1     140.239  74.556  86.768  1.00  0.00    -0.151 N 
HETATM    8  C   UNL     1     140.082  75.257  85.628  1.00  0.00     0.260 C 
HETATM    9  O   UNL     1     140.546  74.837  84.589  1.00  0.00    -0.270 OA
HETATM   10  H01 UNL     1     139.854  74.907  87.633  1.00  0.00     0.187 HD
BRANCH   8  11
HETATM   11  C   UNL     1     139.331  76.564  85.643  1.00  0.00     0.279 C 
BRANCH  11  12
HETATM   12  O   UNL     1     137.926  76.306  85.658  1.00  0.00    -0.342 OA
BRANCH  12  13
HETATM   13  C   UNL     1     137.285  76.308  84.460  1.00  0.00     0.070 A 
HETATM   14  C   UNL     1     137.315  77.456  83.663  1.00  0.00     0.037 A 
HETATM   15  C   UNL     1     136.683  77.489  82.459  1.00  0.00     0.015 A 
HETATM   16  C   UNL     1     135.990  76.354  82.004  1.00  0.00    -0.026 A 
HETATM   17  C   UNL     1     135.326  76.353  80.765  1.00  0.00     0.012 A 
HETATM   18  C   UNL     1     135.959  75.187  82.811  1.00  0.00    -0.023 A 
HETATM   19  C   UNL     1     134.664  75.235  80.358  1.00  0.00     0.001 A 
HETATM   20  C   UNL     1     134.633  74.089  81.149  1.00  0.00     0.001 A 
HETATM   21  C   UNL     1     135.264  74.053  82.355  1.00  0.00     0.012 A 
HETATM   22  C   UNL     1     136.625  75.185  84.047  1.00  0.00     0.049 A 
ENDBRANCH  12  13
ENDBRANCH  11  12
ENDBRANCH   8  11
ENDBRANCH   6   7
TORSDOF 4
ENDMDL
MODEL 6
REMARK VINA RESULT:      -6.0      2.324      3.633
REMARK  4 active torsions:
REMARK  status: ('A' for Active; 'I' for Inactive)
REMARK    1  A    between atoms: N_4  and  C_8 
REMARK       I    between atoms: N_4  and  C_9 
REMARK    2  A    between atoms: C_6  and  C_9 
REMARK    3  A    between atoms: C_6  and  O_21 
REMARK    4  A    between atoms: C_10  and  O_21 
ROOT
HETATM    1  N   UNL     1     140.799  76.185  85.833  1.00  0.00    -0.158 N 
HETATM    2  N   UNL     1     141.291  75.399  84.937  1.00  0.00    -0.032 NA
HETATM    3  N   UNL     1     140.362  75.032  84.128  1.00  0.00     0.065 NA
HETATM    4  N   UNL     1     139.429  76.317  85.558  1.00  0.00     0.041 NA
HETATM    5  C   UNL     1     141.532  76.816  86.933  1.00  0.00     0.207 C 
HETATM    6  C   UNL     1     139.203  75.586  84.486  1.00  0.00     0.767 A 
ENDROOT
BRANCH   6   7
HETATM    7  N   UNL     1     137.972  75.418  83.843  1.00  0.00    -0.151 N 
HETATM    8  C   UNL     1     137.385  74.206  83.818  1.00  0.00     0.260 C 
HETATM    9  O   UNL     1     137.924  73.259  84.351  1.00  0.00    -0.270 OA
HETATM   10  H01 UNL     1     137.523  76.206  83.398  1.00  0.00     0.187 HD
BRANCH   8  11
HETATM   11  C   UNL     1     136.059  74.024  83.126  1.00  0.00     0.279 C 
BRANCH  11  12
HETATM   12  O   UNL     1     135.591  75.288  82.652  1.00  0.00    -0.342 OA
BRANCH  12  13
HETATM   13  C   UNL     1     135.008  75.311  81.425  1.00  0.00     0.070 A 
HETATM   14  C   UNL     1     134.204  74.241  81.023  1.00  0.00     0.037 A 
HETATM   15  C   UNL     1     133.607  74.234  79.801  1.00  0.00     0.015 A 
HETATM   16  C   UNL     1     133.798  75.316  78.926  1.00  0.00    -0.026 A 
HETATM   17  C   UNL     1     133.196  75.342  77.656  1.00  0.00     0.012 A 
HETATM   18  C   UNL     1     134.614  76.404  79.331  1.00  0.00    -0.023 A 
HETATM   19  C   UNL     1     133.404  76.407  76.834  1.00  0.00     0.001 A 
HETATM   20  C   UNL     1     134.206  77.476  77.231  1.00  0.00     0.001 A 
HETATM   21  C   UNL     1     134.804  77.486  78.454  1.00  0.00     0.012 A 
HETATM   22  C   UNL     1     135.211  76.382  80.601  1.00  0.00     0.049 A 
ENDBRANCH  12  13
ENDBRANCH  11  12
ENDBRANCH   8  11
ENDBRANCH   6   7
TORSDOF 4
ENDMDL
MODEL 7
REMARK VINA RESULT:      -5.9      2.211      2.791
REMARK  4 active torsions:
REMARK  status: ('A' for Active; 'I' for Inactive)
REMARK    1  A    between atoms: N_4  and  C_8 
REMARK       I    between atoms: N_4  and  C_9 
REMARK    2  A    between atoms: C_6  and  C_9 
REMARK    3  A    between atoms: C_6  and  O_21 
REMARK    4  A    between atoms: C_10  and  O_21 
ROOT
HETATM    1  N   UNL     1     140.963  76.492  86.393  1.00  0.00    -0.158 N 
HETATM    2  N   UNL     1     141.702  75.661  85.742  1.00  0.00    -0.032 NA
HETATM    3  N   UNL     1     140.994  75.056  84.856  1.00  0.00     0.065 NA
HETATM    4  N   UNL     1     139.666  76.392  85.865  1.00  0.00     0.041 NA
HETATM    5  C   UNL     1     141.394  77.372  87.483  1.00  0.00     0.207 C 
HETATM    6  C   UNL     1     139.734  75.490  84.908  1.00  0.00     0.767 A 
ENDROOT
BRANCH   6   7
HETATM    7  N   UNL     1     138.677  75.062  84.097  1.00  0.00    -0.151 N 
HETATM    8  C   UNL     1     138.032  73.913  84.382  1.00  0.00     0.260 C 
HETATM    9  O   UNL     1     138.369  73.250  85.340  1.00  0.00    -0.270 OA
HETATM   10  H01 UNL     1     138.398  75.613  83.299  1.00  0.00     0.187 HD
BRANCH   8  11
HETATM   11  C   UNL     1     136.894  73.451  83.509  1.00  0.00     0.279 C 
BRANCH  11  12
HETATM   12  O   UNL     1     135.846  74.422  83.539  1.00  0.00    -0.342 OA
BRANCH  12  13
HETATM   13  C   UNL     1     135.531  75.028  82.364  1.00  0.00     0.070 A 
HETATM   14  C   UNL     1     136.107  76.261  82.047  1.00  0.00     0.037 A 
HETATM   15  C   UNL     1     135.812  76.892  80.879  1.00  0.00     0.015 A 
HETATM   16  C   UNL     1     134.917  76.298  79.973  1.00  0.00    -0.026 A 
HETATM   17  C   UNL     1     134.590  76.921  78.757  1.00  0.00     0.012 A 
HETATM   18  C   UNL     1     134.332  75.046  80.292  1.00  0.00    -0.023 A 
HETATM   19  C   UNL     1     133.718  76.317  77.904  1.00  0.00     0.001 A 
HETATM   20  C   UNL     1     133.142  75.087  78.216  1.00  0.00     0.001 A 
HETATM   21  C   UNL     1     133.435  74.453  79.384  1.00  0.00     0.012 A 
HETATM   22  C   UNL     1     134.661  74.419  81.504  1.00  0.00     0.049 A 
ENDBRANCH  12  13
ENDBRANCH  11  12
ENDBRANCH   8  11
ENDBRANCH   6   7
TORSDOF 4
ENDMDL
MODEL 8
REMARK VINA RESULT:      -5.8      2.213      3.812
REMARK  4 active torsions:
REMARK  status: ('A' for Active; 'I' for Inactive)
REMARK    1  A    between atoms: N_4  and  C_8 
REMARK       I    between atoms: N_4  and  C_9 
REMARK    2  A    between atoms: C_6  and  C_9 
REMARK    3  A    between atoms: C_6  and  O_21 
REMARK    4  A    between atoms: C_10  and  O_21 
ROOT
HETATM    1  N   UNL     1     140.426  75.447  86.040  1.00  0.00    -0.158 N 
HETATM    2  N   UNL     1     140.925  75.056  84.917  1.00  0.00    -0.032 NA
HETATM    3  N   UNL     1     139.986  74.937  84.046  1.00  0.00     0.065 NA
HETATM    4  N   UNL     1     139.041  75.580  85.851  1.00  0.00     0.041 NA
HETATM    5  C   UNL     1     141.164  75.700  87.279  1.00  0.00     0.207 C 
HETATM    6  C   UNL     1     138.814  75.257  84.595  1.00  0.00     0.767 A 
ENDROOT
BRANCH   6   7
HETATM    7  N   UNL     1     137.570  75.247  83.954  1.00  0.00    -0.151 N 
HETATM    8  C   UNL     1     137.006  76.404  83.559  1.00  0.00     0.260 C 
HETATM    9  O   UNL     1     137.575  77.456  83.761  1.00  0.00    -0.270 OA
HETATM   10  H01 UNL     1     137.096  74.370  83.788  1.00  0.00     0.187 HD
BRANCH   8  11
HETATM   11  C   UNL     1     135.666  76.394  82.869  1.00  0.00     0.279 C 
BRANCH  11  12
HETATM   12  O   UNL     1     135.542  75.204  82.088  1.00  0.00    -0.342 OA
BRANCH  12  13
HETATM   13  C   UNL     1     134.887  75.310  80.902  1.00  0.00     0.070 A 
HETATM   14  C   UNL     1     134.019  74.291  80.500  1.00  0.00     0.037 A 
HETATM   15  C   UNL     1     133.349  74.368  79.318  1.00  0.00     0.015 A 
HETATM   16  C   UNL     1     133.527  75.488  78.488  1.00  0.00    -0.026 A 
HETATM   17  C   UNL     1     132.851  75.600  77.261  1.00  0.00     0.012 A 
HETATM   18  C   UNL     1     134.407  76.524  78.895  1.00  0.00    -0.023 A 
HETATM   19  C   UNL     1     133.048  76.699  76.482  1.00  0.00     0.001 A 
HETATM   20  C   UNL     1     133.912  77.717  76.881  1.00  0.00     0.001 A 
HETATM   21  C   UNL     1     134.584  77.643  78.062  1.00  0.00     0.012 A 
HETATM   22  C   UNL     1     135.079  76.415  80.122  1.00  0.00     0.049 A 
ENDBRANCH  12  13
ENDBRANCH  11  12
ENDBRANCH   8  11
ENDBRANCH   6   7
TORSDOF 4
ENDMDL
MODEL 9
REMARK VINA RESULT:      -5.8      1.690      2.395
REMARK  4 active torsions:
REMARK  status: ('A' for Active; 'I' for Inactive)
REMARK    1  A    between atoms: N_4  and  C_8 
REMARK       I    between atoms: N_4  and  C_9 
REMARK    2  A    between atoms: C_6  and  C_9 
REMARK    3  A    between atoms: C_6  and  O_21 
REMARK    4  A    between atoms: C_10  and  O_21 
ROOT
HETATM    1  N   UNL     1     142.030  75.112  86.634  1.00  0.00    -0.158 N 
HETATM    2  N   UNL     1     141.515  73.992  86.255  1.00  0.00    -0.032 NA
HETATM    3  N   UNL     1     140.517  74.217  85.476  1.00  0.00     0.065 NA
HETATM    4  N   UNL     1     141.275  76.135  86.036  1.00  0.00     0.041 NA
HETATM    5  C   UNL     1     143.180  75.284  87.524  1.00  0.00     0.207 C 
HETATM    6  C   UNL     1     140.349  75.531  85.322  1.00  0.00     0.767 A 
ENDROOT
BRANCH   6   7
HETATM    7  N   UNL     1     139.365  76.154  84.546  1.00  0.00    -0.151 N 
HETATM    8  C   UNL     1     138.190  76.504  85.103  1.00  0.00     0.260 C 
HETATM    9  O   UNL     1     137.983  76.279  86.277  1.00  0.00    -0.270 OA
HETATM   10  H01 UNL     1     139.537  76.340  83.568  1.00  0.00     0.187 HD
BRANCH   8  11
HETATM   11  C   UNL     1     137.130  77.175  84.268  1.00  0.00     0.279 C 
BRANCH  11  12
HETATM   12  O   UNL     1     137.419  76.979  82.882  1.00  0.00    -0.342 OA
BRANCH  12  13
HETATM   13  C   UNL     1     136.499  76.299  82.150  1.00  0.00     0.070 A 
HETATM   14  C   UNL     1     135.934  76.900  81.022  1.00  0.00     0.037 A 
HETATM   15  C   UNL     1     135.010  76.245  80.268  1.00  0.00     0.015 A 
HETATM   16  C   UNL     1     134.616  74.944  80.624  1.00  0.00    -0.026 A 
HETATM   17  C   UNL     1     133.664  74.238  79.868  1.00  0.00     0.012 A 
HETATM   18  C   UNL     1     135.189  74.331  81.768  1.00  0.00    -0.023 A 
HETATM   19  C   UNL     1     133.307  72.979  80.243  1.00  0.00     0.001 A 
HETATM   20  C   UNL     1     133.869  72.376  81.367  1.00  0.00     0.001 A 
HETATM   21  C   UNL     1     134.793  73.029  82.123  1.00  0.00     0.012 A 
HETATM   22  C   UNL     1     136.143  75.033  82.521  1.00  0.00     0.049 A 
ENDBRANCH  12  13
ENDBRANCH  11  12
ENDBRANCH   8  11
ENDBRANCH   6   7
TORSDOF 4
ENDMDL
