MODEL 1
REMARK VINA RESULT:      -6.0      0.000      0.000
REMARK  4 active torsions:
REMARK  status: ('A' for Active; 'I' for Inactive)
REMARK    1  A    between atoms: N_2  and  C_15 
REMARK    2  A    between atoms: N_2  and  C_16 
REMARK    3  A    between atoms: C_5  and  C_15 
REMARK    4  A    between atoms: C_16  and  C_19 
ROOT
HETATM    1  N   UNL     1     134.983  74.172  81.980  1.00  0.00    -0.318 N 
HETATM    2  C   UNL     1     136.394  75.964  82.744  1.00  0.00     0.039 A 
HETATM    3  C   UNL     1     136.100  76.719  81.657  1.00  0.00     0.028 A 
HETATM    4  C   UNL     1     135.185  76.172  80.653  1.00  0.00    -0.009 A 
HETATM    5  C   UNL     1     134.845  76.903  79.509  1.00  0.00     0.014 A 
HETATM    6  C   UNL     1     133.989  76.362  78.591  1.00  0.00     0.001 A 
HETATM    7  C   UNL     1     133.454  75.096  78.782  1.00  0.00     0.002 A 
HETATM    8  C   UNL     1     133.774  74.359  79.902  1.00  0.00     0.030 A 
HETATM    9  C   UNL     1     134.645  74.887  80.850  1.00  0.00     0.047 A 
HETATM   10  C   UNL     1     134.418  72.835  82.183  1.00  0.00     0.159 C 
HETATM   11  C   UNL     1     135.829  74.680  82.893  1.00  0.00     0.255 A 
HETATM   12  O   UNL     1     136.106  74.018  83.878  1.00  0.00    -0.267 OA
ENDROOT
BRANCH   2  13
HETATM   13  C   UNL     1     137.333  76.498  83.796  1.00  0.00     0.314 C 
BRANCH  13  14
HETATM   14  N   UNL     1     138.606  75.769  83.732  1.00  0.00     0.095 N 
HETATM   15  H01 UNL     1     138.565  75.095  82.981  1.00  0.00     0.316 HD
BRANCH  14  16
HETATM   16  C   UNL     1     138.875  75.067  84.995  1.00  0.00     0.358 C 
BRANCH  16  17
HETATM   17  C   UNL     1     140.272  75.391  85.461  1.00  0.00     0.201 A 
HETATM   18  N   UNL     1     140.699  76.550  85.898  1.00  0.00    -0.208 NA
HETATM   19  C   UNL     1     141.999  76.369  86.195  1.00  0.00     0.152 A 
HETATM   20  N   UNL     1     142.287  75.129  85.935  1.00  0.00    -0.112 NA
HETATM   21  C   UNL     1     142.944  77.410  86.736  1.00  0.00     0.096 C 
HETATM   22  O   UNL     1     141.308  74.549  85.512  1.00  0.00    -0.194 OA
ENDBRANCH  16  17
ENDBRANCH  14  16
ENDBRANCH  13  14
ENDBRANCH   2  13
TORSDOF 4
ENDMDL
MODEL 2
REMARK VINA RESULT:      -5.9      1.344      1.540
REMARK  4 active torsions:
REMARK  status: ('A' for Active; 'I' for Inactive)
REMARK    1  A    between atoms: N_2  and  C_15 
REMARK    2  A    between atoms: N_2  and  C_16 
REMARK    3  A    between atoms: C_5  and  C_15 
REMARK    4  A    between atoms: C_16  and  C_19 
ROOT
HETATM    1  N   UNL     1     135.789  74.192  82.986  1.00  0.00    -0.318 N 
HETATM    2  C   UNL     1     137.035  76.187  83.492  1.00  0.00     0.039 A 
HETATM    3  C   UNL     1     136.577  76.809  82.377  1.00  0.00     0.028 A 
HETATM    4  C   UNL     1     135.661  76.080  81.497  1.00  0.00    -0.009 A 
HETATM    5  C   UNL     1     135.157  76.668  80.331  1.00  0.00     0.014 A 
HETATM    6  C   UNL     1     134.305  75.960  79.531  1.00  0.00     0.001 A 
HETATM    7  C   UNL     1     133.936  74.663  79.863  1.00  0.00     0.002 A 
HETATM    8  C   UNL     1     134.420  74.066  81.006  1.00  0.00     0.030 A 
HETATM    9  C   UNL     1     135.289  74.766  81.836  1.00  0.00     0.047 A 
HETATM   10  C   UNL     1     135.400  72.823  83.338  1.00  0.00     0.159 C 
HETATM   11  C   UNL     1     136.635  74.866  83.785  1.00  0.00     0.255 A 
HETATM   12  O   UNL     1     137.057  74.327  84.792  1.00  0.00    -0.267 OA
ENDROOT
BRANCH   2  13
HETATM   13  C   UNL     1     137.979  76.909  84.419  1.00  0.00     0.314 C 
BRANCH  13  14
HETATM   14  N   UNL     1     139.234  76.154  84.527  1.00  0.00     0.095 N 
HETATM   15  H01 UNL     1     139.028  75.165  84.497  1.00  0.00     0.316 HD
BRANCH  14  16
HETATM   16  C   UNL     1     139.929  76.464  85.784  1.00  0.00     0.358 C 
BRANCH  16  17
HETATM   17  C   UNL     1     140.907  75.362  86.101  1.00  0.00     0.201 A 
HETATM   18  N   UNL     1     142.109  75.507  86.602  1.00  0.00    -0.208 NA
HETATM   19  C   UNL     1     142.608  74.262  86.712  1.00  0.00     0.152 A 
HETATM   20  N   UNL     1     141.697  73.439  86.286  1.00  0.00    -0.112 NA
HETATM   21  C   UNL     1     143.971  73.890  87.237  1.00  0.00     0.096 C 
HETATM   22  O   UNL     1     140.711  74.051  85.931  1.00  0.00    -0.194 OA
ENDBRANCH  16  17
ENDBRANCH  14  16
ENDBRANCH  13  14
ENDBRANCH   2  13
TORSDOF 4
ENDMDL
MODEL 3
REMARK VINA RESULT:      -5.8      1.511      1.971
REMARK  4 active torsions:
REMARK  status: ('A' for Active; 'I' for Inactive)
REMARK    1  A    between atoms: N_2  and  C_15 
REMARK    2  A    between atoms: N_2  and  C_16 
REMARK    3  A    between atoms: C_5  and  C_15 
REMARK    4  A    between atoms: C_16  and  C_19 
ROOT
HETATM    1  N   UNL     1     135.371  74.203  82.413  1.00  0.00    -0.318 N 
HETATM    2  C   UNL     1     136.691  76.142  82.944  1.00  0.00     0.039 A 
HETATM    3  C   UNL     1     136.268  76.790  81.830  1.00  0.00     0.028 A 
HETATM    4  C   UNL     1     135.331  76.106  80.937  1.00  0.00    -0.009 A 
HETATM    5  C   UNL     1     134.861  76.722  79.772  1.00  0.00     0.014 A 
HETATM    6  C   UNL     1     133.988  76.055  78.960  1.00  0.00     0.001 A 
HETATM    7  C   UNL     1     133.564  74.772  79.278  1.00  0.00     0.002 A 
HETATM    8  C   UNL     1     134.014  74.147  80.421  1.00  0.00     0.030 A 
HETATM    9  C   UNL     1     134.904  74.805  81.263  1.00  0.00     0.047 A 
HETATM   10  C   UNL     1     134.924  72.848  82.750  1.00  0.00     0.159 C 
HETATM   11  C   UNL     1     136.236  74.836  83.224  1.00  0.00     0.255 A 
HETATM   12  O   UNL     1     136.628  74.273  84.230  1.00  0.00    -0.267 OA
ENDROOT
BRANCH   2  13
HETATM   13  C   UNL     1     137.656  76.819  83.884  1.00  0.00     0.314 C 
BRANCH  13  14
HETATM   14  N   UNL     1     138.846  75.975  84.057  1.00  0.00     0.095 N 
HETATM   15  H01 UNL     1     138.581  75.005  83.958  1.00  0.00     0.316 HD
BRANCH  14  16
HETATM   16  C   UNL     1     139.448  76.179  85.381  1.00  0.00     0.358 C 
BRANCH  16  17
HETATM   17  C   UNL     1     139.862  74.848  85.954  1.00  0.00     0.201 A 
HETATM   18  N   UNL     1     139.141  74.072  86.726  1.00  0.00    -0.208 NA
HETATM   19  C   UNL     1     139.914  73.002  86.988  1.00  0.00     0.152 A 
HETATM   20  N   UNL     1     141.042  73.176  86.368  1.00  0.00    -0.112 NA
HETATM   21  C   UNL     1     139.538  71.817  87.839  1.00  0.00     0.096 C 
HETATM   22  O   UNL     1     141.033  74.231  85.767  1.00  0.00    -0.194 OA
ENDBRANCH  16  17
ENDBRANCH  14  16
ENDBRANCH  13  14
ENDBRANCH   2  13
TORSDOF 4
ENDMDL
MODEL 4
REMARK VINA RESULT:      -5.8      1.956      2.672
REMARK  4 active torsions:
REMARK  status: ('A' for Active; 'I' for Inactive)
REMARK    1  A    between atoms: N_2  and  C_15 
REMARK    2  A    between atoms: N_2  and  C_16 
REMARK    3  A    between atoms: C_5  and  C_15 
REMARK    4  A    between atoms: C_16  and  C_19 
ROOT
HETATM    1  N   UNL     1     136.795  73.830  83.551  1.00  0.00    -0.318 N 
HETATM    2  C   UNL     1     138.079  75.753  84.214  1.00  0.00     0.039 A 
HETATM    3  C   UNL     1     137.471  76.534  83.288  1.00  0.00     0.028 A 
HETATM    4  C   UNL     1     136.451  75.932  82.427  1.00  0.00    -0.009 A 
HETATM    5  C   UNL     1     135.790  76.687  81.452  1.00  0.00     0.014 A 
HETATM    6  C   UNL     1     134.844  76.094  80.663  1.00  0.00     0.001 A 
HETATM    7  C   UNL     1     134.534  74.750  80.820  1.00  0.00     0.002 A 
HETATM    8  C   UNL     1     135.173  73.988  81.774  1.00  0.00     0.030 A 
HETATM    9  C   UNL     1     136.140  74.569  82.588  1.00  0.00     0.047 A 
HETATM   10  C   UNL     1     136.468  72.411  83.717  1.00  0.00     0.159 C 
HETATM   11  C   UNL     1     137.734  74.390  84.333  1.00  0.00     0.255 A 
HETATM   12  O   UNL     1     138.292  73.706  85.172  1.00  0.00    -0.267 OA
ENDROOT
BRANCH   2  13
HETATM   13  C   UNL     1     139.133  76.342  85.117  1.00  0.00     0.314 C 
BRANCH  13  14
HETATM   14  N   UNL     1     140.448  75.795  84.758  1.00  0.00     0.095 N 
HETATM   15  H01 UNL     1     140.351  74.812  84.545  1.00  0.00     0.316 HD
BRANCH  14  16
HETATM   16  C   UNL     1     141.405  75.958  85.861  1.00  0.00     0.358 C 
BRANCH  16  17
HETATM   17  C   UNL     1     141.980  74.614  86.228  1.00  0.00     0.201 A 
HETATM   18  N   UNL     1     143.227  74.357  86.540  1.00  0.00    -0.208 NA
HETATM   19  C   UNL     1     143.274  73.036  86.790  1.00  0.00     0.152 A 
HETATM   20  N   UNL     1     142.073  72.567  86.626  1.00  0.00    -0.112 NA
HETATM   21  C   UNL     1     144.493  72.246  87.190  1.00  0.00     0.096 C 
HETATM   22  O   UNL     1     141.314  73.457  86.303  1.00  0.00    -0.194 OA
ENDBRANCH  16  17
ENDBRANCH  14  16
ENDBRANCH  13  14
ENDBRANCH   2  13
TORSDOF 4
ENDMDL
MODEL 5
REMARK VINA RESULT:      -5.6      1.564      2.130
REMARK  4 active torsions:
REMARK  status: ('A' for Active; 'I' for Inactive)
REMARK    1  A    between atoms: N_2  and  C_15 
REMARK    2  A    between atoms: N_2  and  C_16 
REMARK    3  A    between atoms: C_5  and  C_15 
REMARK    4  A    between atoms: C_16  and  C_19 
ROOT
HETATM    1  N   UNL     1     133.698  74.608  79.957  1.00  0.00    -0.318 N 
HETATM    2  C   UNL     1     135.154  75.762  81.486  1.00  0.00     0.039 A 
HETATM    3  C   UNL     1     135.379  76.756  80.592  1.00  0.00     0.028 A 
HETATM    4  C   UNL     1     134.724  76.680  79.285  1.00  0.00    -0.009 A 
HETATM    5  C   UNL     1     134.919  77.675  78.319  1.00  0.00     0.014 A 
HETATM    6  C   UNL     1     134.293  77.574  77.108  1.00  0.00     0.001 A 
HETATM    7  C   UNL     1     133.467  76.495  76.827  1.00  0.00     0.002 A 
HETATM    8  C   UNL     1     133.260  75.505  77.763  1.00  0.00     0.030 A 
HETATM    9  C   UNL     1     133.887  75.585  79.002  1.00  0.00     0.047 A 
HETATM   10  C   UNL     1     132.825  73.468  79.661  1.00  0.00     0.159 C 
HETATM   11  C   UNL     1     134.308  74.682  81.153  1.00  0.00     0.255 A 
HETATM   12  O   UNL     1     134.119  73.800  81.971  1.00  0.00    -0.267 OA
ENDROOT
BRANCH   2  13
HETATM   13  C   UNL     1     135.813  75.809  82.841  1.00  0.00     0.314 C 
BRANCH  13  14
HETATM   14  N   UNL     1     136.852  74.774  82.917  1.00  0.00     0.095 N 
HETATM   15  H01 UNL     1     136.509  73.927  82.487  1.00  0.00     0.316 HD
BRANCH  14  16
HETATM   16  C   UNL     1     137.215  74.493  84.313  1.00  0.00     0.358 C 
BRANCH  16  17
HETATM   17  C   UNL     1     138.645  74.904  84.552  1.00  0.00     0.201 A 
HETATM   18  N   UNL     1     139.107  75.553  85.594  1.00  0.00    -0.208 NA
HETATM   19  C   UNL     1     140.426  75.698  85.374  1.00  0.00     0.152 A 
HETATM   20  N   UNL     1     140.695  75.135  84.234  1.00  0.00    -0.112 NA
HETATM   21  C   UNL     1     141.411  76.384  86.285  1.00  0.00     0.096 C 
HETATM   22  O   UNL     1     139.685  74.672  83.745  1.00  0.00    -0.194 OA
ENDBRANCH  16  17
ENDBRANCH  14  16
ENDBRANCH  13  14
ENDBRANCH   2  13
TORSDOF 4
ENDMDL
MODEL 6
REMARK VINA RESULT:      -5.6      3.318      4.570
REMARK  4 active torsions:
REMARK  status: ('A' for Active; 'I' for Inactive)
REMARK    1  A    between atoms: N_2  and  C_15 
REMARK    2  A    between atoms: N_2  and  C_16 
REMARK    3  A    between atoms: C_5  and  C_15 
REMARK    4  A    between atoms: C_16  and  C_19 
ROOT
HETATM    1  N   UNL     1     133.981  78.064  83.827  1.00  0.00    -0.318 N 
HETATM    2  C   UNL     1     136.340  77.683  83.543  1.00  0.00     0.039 A 
HETATM    3  C   UNL     1     136.651  78.755  84.313  1.00  0.00     0.028 A 
HETATM    4  C   UNL     1     135.559  79.545  84.885  1.00  0.00    -0.009 A 
HETATM    5  C   UNL     1     135.817  80.663  85.686  1.00  0.00     0.014 A 
HETATM    6  C   UNL     1     134.774  81.380  86.203  1.00  0.00     0.001 A 
HETATM    7  C   UNL     1     133.462  81.009  85.941  1.00  0.00     0.002 A 
HETATM    8  C   UNL     1     133.185  79.911  85.156  1.00  0.00     0.030 A 
HETATM    9  C   UNL     1     134.230  79.167  84.617  1.00  0.00     0.047 A 
HETATM   10  C   UNL     1     132.597  77.672  83.550  1.00  0.00     0.159 C 
HETATM   11  C   UNL     1     134.990  77.348  83.301  1.00  0.00     0.255 A 
HETATM   12  O   UNL     1     134.733  76.381  82.607  1.00  0.00    -0.267 OA
ENDROOT
BRANCH   2  13
HETATM   13  C   UNL     1     137.440  76.848  82.939  1.00  0.00     0.314 C 
BRANCH  13  14
HETATM   14  N   UNL     1     137.316  75.461  83.405  1.00  0.00     0.095 N 
HETATM   15  H01 UNL     1     136.368  75.145  83.254  1.00  0.00     0.316 HD
BRANCH  14  16
HETATM   16  C   UNL     1     137.636  75.356  84.836  1.00  0.00     0.358 C 
BRANCH  16  17
HETATM   17  C   UNL     1     139.124  75.501  85.028  1.00  0.00     0.201 A 
HETATM   18  N   UNL     1     139.732  76.398  85.765  1.00  0.00    -0.208 NA
HETATM   19  C   UNL     1     141.047  76.145  85.633  1.00  0.00     0.152 A 
HETATM   20  N   UNL     1     141.168  75.121  84.842  1.00  0.00    -0.112 NA
HETATM   21  C   UNL     1     142.172  76.906  86.286  1.00  0.00     0.096 C 
HETATM   22  O   UNL     1     140.075  74.735  84.483  1.00  0.00    -0.194 OA
ENDBRANCH  16  17
ENDBRANCH  14  16
ENDBRANCH  13  14
ENDBRANCH   2  13
TORSDOF 4
ENDMDL
MODEL 7
REMARK VINA RESULT:      -5.5      3.661      5.107
REMARK  4 active torsions:
REMARK  status: ('A' for Active; 'I' for Inactive)
REMARK    1  A    between atoms: N_2  and  C_15 
REMARK    2  A    between atoms: N_2  and  C_16 
REMARK    3  A    between atoms: C_5  and  C_15 
REMARK    4  A    between atoms: C_16  and  C_19 
ROOT
HETATM    1  N   UNL     1     136.524  75.458  83.039  1.00  0.00    -0.318 N 
HETATM    2  C   UNL     1     135.836  73.208  83.542  1.00  0.00     0.039 A 
HETATM    3  C   UNL     1     135.041  73.159  82.445  1.00  0.00     0.028 A 
HETATM    4  C   UNL     1     134.974  74.336  81.577  1.00  0.00    -0.009 A 
HETATM    5  C   UNL     1     134.170  74.346  80.431  1.00  0.00     0.014 A 
HETATM    6  C   UNL     1     134.129  75.462  79.643  1.00  0.00     0.001 A 
HETATM    7  C   UNL     1     134.877  76.585  79.968  1.00  0.00     0.002 A 
HETATM    8  C   UNL     1     135.676  76.597  81.091  1.00  0.00     0.030 A 
HETATM    9  C   UNL     1     135.733  75.474  81.909  1.00  0.00     0.047 A 
HETATM   10  C   UNL     1     137.314  76.644  83.383  1.00  0.00     0.159 C 
HETATM   11  C   UNL     1     136.575  74.375  83.834  1.00  0.00     0.255 A 
HETATM   12  O   UNL     1     137.283  74.398  84.824  1.00  0.00    -0.267 OA
ENDROOT
BRANCH   2  13
HETATM   13  C   UNL     1     135.928  72.013  84.456  1.00  0.00     0.314 C 
BRANCH  13  14
HETATM   14  N   UNL     1     137.319  71.546  84.514  1.00  0.00     0.095 N 
HETATM   15  H01 UNL     1     137.852  72.001  83.787  1.00  0.00     0.316 HD
BRANCH  14  16
HETATM   16  C   UNL     1     137.393  70.090  84.327  1.00  0.00     0.358 C 
BRANCH  16  17
HETATM   17  C   UNL     1     138.361  69.777  83.215  1.00  0.00     0.201 A 
HETATM   18  N   UNL     1     138.251  70.138  81.959  1.00  0.00    -0.208 NA
HETATM   19  C   UNL     1     139.335  69.636  81.341  1.00  0.00     0.152 A 
HETATM   20  N   UNL     1     140.039  69.012  82.238  1.00  0.00    -0.112 NA
HETATM   21  C   UNL     1     139.674  69.776  79.880  1.00  0.00     0.096 C 
HETATM   22  O   UNL     1     139.497  69.081  83.321  1.00  0.00    -0.194 OA
ENDBRANCH  16  17
ENDBRANCH  14  16
ENDBRANCH  13  14
ENDBRANCH   2  13
TORSDOF 4
ENDMDL
MODEL 8
REMARK VINA RESULT:      -5.4      1.736      2.546
REMARK  4 active torsions:
REMARK  status: ('A' for Active; 'I' for Inactive)
REMARK    1  A    between atoms: N_2  and  C_15 
REMARK    2  A    between atoms: N_2  and  C_16 
REMARK    3  A    between atoms: C_5  and  C_15 
REMARK    4  A    between atoms: C_16  and  C_19 
ROOT
HETATM    1  N   UNL     1     136.859  73.760  83.606  1.00  0.00    -0.318 N 
HETATM    2  C   UNL     1     138.171  75.653  84.303  1.00  0.00     0.039 A 
HETATM    3  C   UNL     1     137.571  76.459  83.393  1.00  0.00     0.028 A 
HETATM    4  C   UNL     1     136.543  75.887  82.522  1.00  0.00    -0.009 A 
HETATM    5  C   UNL     1     135.890  76.669  81.562  1.00  0.00     0.014 A 
HETATM    6  C   UNL     1     134.936  76.104  80.764  1.00  0.00     0.001 A 
HETATM    7  C   UNL     1     134.608  74.761  80.896  1.00  0.00     0.002 A 
HETATM    8  C   UNL     1     135.238  73.973  81.835  1.00  0.00     0.030 A 
HETATM    9  C   UNL     1     136.213  74.526  82.658  1.00  0.00     0.047 A 
HETATM   10  C   UNL     1     136.514  72.342  83.746  1.00  0.00     0.159 C 
HETATM   11  C   UNL     1     137.807  74.292  84.397  1.00  0.00     0.255 A 
HETATM   12  O   UNL     1     138.358  73.585  85.222  1.00  0.00    -0.267 OA
ENDROOT
BRANCH   2  13
HETATM   13  C   UNL     1     139.233  76.210  85.215  1.00  0.00     0.314 C 
BRANCH  13  14
HETATM   14  N   UNL     1     140.550  75.715  84.794  1.00  0.00     0.095 N 
HETATM   15  H01 UNL     1     140.425  74.915  84.190  1.00  0.00     0.316 HD
BRANCH  14  16
HETATM   16  C   UNL     1     141.361  75.322  85.955  1.00  0.00     0.358 C 
BRANCH  16  17
HETATM   17  C   UNL     1     141.851  76.557  86.666  1.00  0.00     0.201 A 
HETATM   18  N   UNL     1     142.789  77.374  86.254  1.00  0.00    -0.208 NA
HETATM   19  C   UNL     1     142.886  78.322  87.203  1.00  0.00     0.152 A 
HETATM   20  N   UNL     1     142.014  78.041  88.124  1.00  0.00    -0.112 NA
HETATM   21  C   UNL     1     143.830  79.497  87.198  1.00  0.00     0.096 C 
HETATM   22  O   UNL     1     141.407  77.030  87.835  1.00  0.00    -0.194 OA
ENDBRANCH  16  17
ENDBRANCH  14  16
ENDBRANCH  13  14
ENDBRANCH   2  13
TORSDOF 4
ENDMDL
MODEL 9
REMARK VINA RESULT:      -5.2      1.654      2.676
REMARK  4 active torsions:
REMARK  status: ('A' for Active; 'I' for Inactive)
REMARK    1  A    between atoms: N_2  and  C_15 
REMARK    2  A    between atoms: N_2  and  C_16 
REMARK    3  A    between atoms: C_5  and  C_15 
REMARK    4  A    between atoms: C_16  and  C_19 
ROOT
HETATM    1  N   UNL     1     136.552  76.321  83.230  1.00  0.00    -0.318 N 
HETATM    2  C   UNL     1     136.427  74.274  84.487  1.00  0.00     0.039 A 
HETATM    3  C   UNL     1     135.676  73.678  83.528  1.00  0.00     0.028 A 
HETATM    4  C   UNL     1     135.332  74.449  82.332  1.00  0.00    -0.009 A 
HETATM    5  C   UNL     1     134.558  73.889  81.309  1.00  0.00     0.014 A 
HETATM    6  C   UNL     1     134.253  74.636  80.206  1.00  0.00     0.001 A 
HETATM    7  C   UNL     1     134.703  75.944  80.090  1.00  0.00     0.002 A 
HETATM    8  C   UNL     1     135.467  76.515  81.086  1.00  0.00     0.030 A 
HETATM    9  C   UNL     1     135.789  75.775  82.218  1.00  0.00     0.047 A 
HETATM   10  C   UNL     1     137.027  77.702  83.110  1.00  0.00     0.159 C 
HETATM   11  C   UNL     1     136.858  75.608  84.328  1.00  0.00     0.255 A 
HETATM   12  O   UNL     1     137.532  76.124  85.201  1.00  0.00    -0.267 OA
ENDROOT
BRANCH   2  13
HETATM   13  C   UNL     1     136.800  73.509  85.731  1.00  0.00     0.314 C 
BRANCH  13  14
HETATM   14  N   UNL     1     138.209  73.102  85.653  1.00  0.00     0.095 N 
HETATM   15  H01 UNL     1     138.257  72.111  85.463  1.00  0.00     0.316 HD
BRANCH  14  16
HETATM   16  C   UNL     1     138.910  73.386  86.914  1.00  0.00     0.358 C 
BRANCH  16  17
HETATM   17  C   UNL     1     140.183  74.137  86.621  1.00  0.00     0.201 A 
HETATM   18  N   UNL     1     140.378  75.426  86.760  1.00  0.00    -0.208 NA
HETATM   19  C   UNL     1     141.650  75.643  86.382  1.00  0.00     0.152 A 
HETATM   20  N   UNL     1     142.157  74.495  86.045  1.00  0.00    -0.112 NA
HETATM   21  C   UNL     1     142.360  76.972  86.358  1.00  0.00     0.096 C 
HETATM   22  O   UNL     1     141.330  73.616  86.175  1.00  0.00    -0.194 OA
ENDBRANCH  16  17
ENDBRANCH  14  16
ENDBRANCH  13  14
ENDBRANCH   2  13
TORSDOF 4
ENDMDL
